*************   S T A R T I N G   G E O S - C H E M   *************

===> Mode of operation         : GEOS-Chem "Classic"
===> GEOS-Chem version         : 14.3.0
===> Compiler                  : GNU Fortran compiler (aka gfortran)
===> Flexible precision set to : 8-byte real (aka REAL*8)
===> Parallelization w/ OpenMP : ON
===> Binary punch diagnostics  : OFF
===> netCDF diagnostics        : ON
===> netCDF file compression   : SUPPORTED
===> Luo et al (2019) wetdep?  : OFF

===> SIMULATION START TIME: 2024/02/22 12:33 <===

===============================================================================
G E O S - C H E M   U S E R   I N P U T

READ_INPUT_FILE: Opening ./geoschem_config.yml

SIMULATION SETTINGS
-------------------
Simulation name             : fullchem
CHEM_INPUTS directory       : /shared/ucl/depts/uptrop/uclgcfs/gcgrid/gcdata/ExtData/CHEM_INPUTS/
Species database file       : ./species_database.yml
Turn on verbose output      :     F
Verbose output printed on   : root core only
Start time of run           : 20200101 000000
End time of run             : 20200102 000000
Data Directory              : /shared/ucl/depts/uptrop/uclgcfs/gcgrid/gcdata/ExtData/
Meteorology field           : MERRA2
Turn on GEOS-Chem timers    :     F

GRID SETTINGS
------------
Grid resolution             : 4.0x5.0
Min/max longitude           :  -180.0000   180.0000
Min/max latitude            :   -90.0000    90.0000
X grid dimension            :    72
Y grid dimension            :    46
Z grid dimension            :    47
Use half-sized polar boxes? :     T
Center on Intl Date Line?   :     T
Is this a nested-grid sim?  :     F
 --> Buffer zone (N S E W ) :     0    0    0    0

TIMESTEP SETTINGS
-----------------
Transport/Convection [sec]  :   600
Chemistry/Emissions  [sec]  :  1200
RRTMG rad transfer   [sec]  : 10800

TRANSPORT SETTINGS
------------------
Turn on transport?          :     T
Let TPCORE Fill negatives?  :     T
IORD, JORD, KORD for TPCORE?:     3    3    7

CONVECTION SETTINGS
-------------------
Turn on cloud convection?   :     T

PBL MIXING SETTINGS
-------------------
Turn on PBL mixing?         :     T
Turn on non-local PBL?      :     T

AEROSOL SETTINGS
----------------
Online SULFATE AEROSOLS?    :     T
Metal catalyzed SO2 ox.?    :     T
Online CARBON AEROSOLS?     :     T
Brown Carbon Aerosol?       :     F
BC Absorption Enhancement?  :     T
Hydrophilic BC AE factor    :     1.50
Hydrophobic BC AE factor    :     1.00
Online COMPLEX SOA?         :     F
Semivolatile POA?           :     F
Online DUST AEROSOLS?       :     T
Acid uptake on dust?        :     F
Online SEA SALT AEROSOLS?   :     T
Accum  SEA SALT radii [um]  :     0.01 -     0.50
Coarse SEA SALT radii [um]  :     0.50 -     8.00
MARINE ORGANIC AEROSOLS?    :     F
Settle strat. aerosols?     :     T
Online SOLID PSC aerosols?  :     T
Allow hom. NAT nucleation?  :     F
NAT supercooling requirement:     3.00K
Ice supersaturation req.    :    20.00K
Perform PSC het. chemistry? :     T
Use strat. aerosol OD?      :     T

DRY DEPOSITION SETTINGS
-----------------------
Turn on dry deposition?     :     T
Dry dep over full PBL?      :     F
Turn on CO2 effect?         :     F
CO2 level                   :   600.00
CO2 reference level         :   380.00
RIX scaling factor          :     1.00

WET DEPOSITION SETTINGS
-----------------------
Turn on wet deposition?     :     T

CHEMISTRY SETTINGS
------------------
Turn on chemistry?          :     T
Use linear. mesospheric chem:     T
 => Use Linoz for O3?       :     T
Online strat. H2O?          :     T
Use robust strat H2O BC?    :     T
GAMMA HO2                   : 0.20
Use auto-reduce solver?     :     F
Use target species threshold:     T
OH tuning factor:             5.0E-05
NO2 tuning factor:            1.0E-04
Keep halogen spec. active?  :     F
Use append in auto-reduce?  :     F

PHOTOLYSIS SETTINGS
-------------------
Turn on photolysis?         :     F
FAST-JX input directory     : /shared/ucl/depts/uptrop/uclgcfs/gcgrid/gcdata/ExtData/CHEM_INPUTS/FAST_JX/v2021-10/
Cloud-J input directory     : /home/ucfacb0/Scratch/CLOUD_J/
Use online ozone?           :     T
Use ozone from met?         :     T
Use TOMS/SBUV ozone?        :     F
Photolyse nitrate aerosol?  :     T
JNITs scaling of JHNO3      :  100.000
JNIT scaling of JHNO3       :  100.000
JNIT(s) channel A (HONO)    :   66.667
JNIT(s) channel B (NO2)     :   33.333

NOTE ABOUT OVERHEAD O3 FOR FAST-JX:
 Online O3 from GEOS-Chem will be used
 to weight the O3 column within the
 chemistry grid and O3 from met or TOMS
 will be used outside the chemistry grid.

RRTMG SETTINGS
--------------
AOD output wavelength (nm)  :   550.0
Turn on radiation?          :     F
Consider longwave?          :     F
Consider shortwave?         :     F
Clear-sky flux?             :     F
All-sky flux?               :     F
CO2 VMR in ppmv             :     T
Fixed dyn. heat. assumption?:     F
 --> Seasonal evolution?    :     F
 --> Extend to TOA?         :     F
 --> Read in dyn. heating?  :     F

OBSPACK SETTINGS
----------------
Turn on ObsPack diagnostic? :     F
Suppress logfile output?    :     F
ObsPack input file          : ./obspack_co2_1_OCO2MIP_2018-11-28.YYYYMMDD.nc
ObsPack output file         : ./OutputDir/GEOSChem.ObsPack.YYYYMMDD_hhmmz.nc4

PLANEFLIGHT DIAGNOSTIC SETTINGS
-------------------------------
Turn on planeflight diag?   :     F
Flight track input file     : Planeflight.dat.YYYYMMDD
Output file name            : plane.log.YYYYMMDD

TIMESTEPS SETTINGS
------------------
Chemistry  Timestep [sec]   :   1200
Convection Timestep [sec]   :    600
Dynamics   Timestep [sec]   :    600
Emission   Timestep [sec]   :   1200
Unit Conv  Timestep [sec]   :    600
Diagnostic Timestep [sec]   :   1200
Radiation  Timestep [sec]   :  10800

%%%%%%%%%%%%%%% GLOBAL GRID %%%%%%%%%%%%%%%

Grid box longitude centers [degrees]: 
-180.00000 -175.00000 -170.00000 -165.00000 -160.00000 -155.00000 -150.00000
-145.00000 -140.00000 -135.00000 -130.00000 -125.00000 -120.00000 -115.00000
-110.00000 -105.00000 -100.00000  -95.00000  -90.00000  -85.00000  -80.00000
 -75.00000  -70.00000  -65.00000  -60.00000  -55.00000  -50.00000  -45.00000
 -40.00000  -35.00000  -30.00000  -25.00000  -20.00000  -15.00000  -10.00000
  -5.00000    0.00000    5.00000   10.00000   15.00000   20.00000   25.00000
  30.00000   35.00000   40.00000   45.00000   50.00000   55.00000   60.00000
  65.00000   70.00000   75.00000   80.00000   85.00000   90.00000   95.00000
 100.00000  105.00000  110.00000  115.00000  120.00000  125.00000  130.00000
 135.00000  140.00000  145.00000  150.00000  155.00000  160.00000  165.00000
 170.00000  175.00000

Grid box latitude centers [degrees]: 
 -89.00000  -86.00000  -82.00000  -78.00000  -74.00000  -70.00000  -66.00000
 -62.00000  -58.00000  -54.00000  -50.00000  -46.00000  -42.00000  -38.00000
 -34.00000  -30.00000  -26.00000  -22.00000  -18.00000  -14.00000  -10.00000
  -6.00000   -2.00000    2.00000    6.00000   10.00000   14.00000   18.00000
  22.00000   26.00000   30.00000   34.00000   38.00000   42.00000   46.00000
  50.00000   54.00000   58.00000   62.00000   66.00000   70.00000   74.00000
  78.00000   82.00000   86.00000   89.00000

%%%%%%%%%%%% USER-DEFINED GRID %%%%%%%%%%%%

  XMinOffset :            0
  XMaxOffset :           71
  YMinOffset :            0
  YMaxOffset :           45


Grid box longitude centers [degrees]: 
-180.00000 -175.00000 -170.00000 -165.00000 -160.00000 -155.00000 -150.00000
-145.00000 -140.00000 -135.00000 -130.00000 -125.00000 -120.00000 -115.00000
-110.00000 -105.00000 -100.00000  -95.00000  -90.00000  -85.00000  -80.00000
 -75.00000  -70.00000  -65.00000  -60.00000  -55.00000  -50.00000  -45.00000
 -40.00000  -35.00000  -30.00000  -25.00000  -20.00000  -15.00000  -10.00000
  -5.00000    0.00000    5.00000   10.00000   15.00000   20.00000   25.00000
  30.00000   35.00000   40.00000   45.00000   50.00000   55.00000   60.00000
  65.00000   70.00000   75.00000   80.00000   85.00000   90.00000   95.00000
 100.00000  105.00000  110.00000  115.00000  120.00000  125.00000  130.00000
 135.00000  140.00000  145.00000  150.00000  155.00000  160.00000  165.00000
 170.00000  175.00000

Grid box longitude edges [degrees]: 
-182.50000 -177.50000 -172.50000 -167.50000 -162.50000 -157.50000 -152.50000
-147.50000 -142.50000 -137.50000 -132.50000 -127.50000 -122.50000 -117.50000
-112.50000 -107.50000 -102.50000  -97.50000  -92.50000  -87.50000  -82.50000
 -77.50000  -72.50000  -67.50000  -62.50000  -57.50000  -52.50000  -47.50000
 -42.50000  -37.50000  -32.50000  -27.50000  -22.50000  -17.50000  -12.50000
  -7.50000   -2.50000    2.50000    7.50000   12.50000   17.50000   22.50000
  27.50000   32.50000   37.50000   42.50000   47.50000   52.50000   57.50000
  62.50000   67.50000   72.50000   77.50000   82.50000   87.50000   92.50000
  97.50000  102.50000  107.50000  112.50000  117.50000  122.50000  127.50000
 132.50000  137.50000  142.50000  147.50000  152.50000  157.50000  162.50000
 167.50000  172.50000  177.50000

Grid box latitude centers [degrees]: 
 -89.00000  -86.00000  -82.00000  -78.00000  -74.00000  -70.00000  -66.00000
 -62.00000  -58.00000  -54.00000  -50.00000  -46.00000  -42.00000  -38.00000
 -34.00000  -30.00000  -26.00000  -22.00000  -18.00000  -14.00000  -10.00000
  -6.00000   -2.00000    2.00000    6.00000   10.00000   14.00000   18.00000
  22.00000   26.00000   30.00000   34.00000   38.00000   42.00000   46.00000
  50.00000   54.00000   58.00000   62.00000   66.00000   70.00000   74.00000
  78.00000   82.00000   86.00000   89.00000

Grid box latitude edges [degrees]: 
 -90.00000  -88.00000  -84.00000  -80.00000  -76.00000  -72.00000  -68.00000
 -64.00000  -60.00000  -56.00000  -52.00000  -48.00000  -44.00000  -40.00000
 -36.00000  -32.00000  -28.00000  -24.00000  -20.00000  -16.00000  -12.00000
  -8.00000   -4.00000    0.00000    4.00000    8.00000   12.00000   16.00000
  20.00000   24.00000   28.00000   32.00000   36.00000   40.00000   44.00000
  48.00000   52.00000   56.00000   60.00000   64.00000   68.00000   72.00000
  76.00000   80.00000   84.00000   88.00000   90.00000

SIN( grid box latitude edges )
  -1.00000   -0.99939   -0.99452   -0.98481   -0.97030   -0.95106   -0.92718
  -0.89879   -0.86603   -0.82904   -0.78801   -0.74314   -0.69466   -0.64279
  -0.58779   -0.52992   -0.46947   -0.40674   -0.34202   -0.27564   -0.20791
  -0.13917   -0.06976    0.00000    0.06976    0.13917    0.20791    0.27564
   0.34202    0.40674    0.46947    0.52992    0.58779    0.64279    0.69466
   0.74314    0.78801    0.82904    0.86603    0.89879    0.92718    0.95106
   0.97030    0.98481    0.99452    0.99939    1.00000
===============================================================================
SPECIES NAMES AND INDICES

Name               ModelId  DryDepId  WetDepId  PhotolId HygGrthId  KppSpcId
-------------------------------------------------------------------------------
ACET                     1         1         -         1         -       221
ACTA                     2         2         1         -         -       219
AERI                     3         3         2         -         -         4
ALD2                     4         4         3         2         -       264
ALK4                     5         -         -         -         -       114
AONITA                   6         5         4         -         -         5
AROMP4                   7         6         5         -         -       159
AROMP5                   8         7         6         -         -       148
ATOOH                    9         8         7         3         -       196
BALD                    10         9         8         4         -       101
BCPI                    11        10         9         -         1         -
BCPO                    12        11        10         -         -         -
BENZ                    13         -         -         -         -        64
BENZP                   14        12        11         5         -       107
Br                      15         -         -         -         -       273
Br2                     16        13        12         6         -       128
BrCl                    17        14        13         7         -       135
BrNO2                   18         -         -         8         -        51
BrNO3                   19        15         -         9         -       176
BrO                     20         -         -        10         -       274
BrSALA                  21        16        14         -         -       283
BrSALC                  22        17        15         -         -       277
BUTDI                   23         -         -         -         -         6
BZCO3H                  24        18        16        11         -        70
BZPAN                   25        19        17         -         -        97
C2H2                    26         -         -         -         -        58
C2H4                    27         -         -         -         -        76
C2H6                    28         -         -         -         -       161
C3H8                    29         -         -         -         -       124
CCl4                    30         -         -        12         -        52
CFC11                   31         -         -        13         -        53
CFC113                  32         -         -        14         -        55
CFC114                  33         -         -        15         -        56
CFC115                  34         -         -        16         -        57
CFC12                   35         -         -        17         -        54
CH2Br2                  36         -         -        18         -        71
CH2Cl2                  37         -         -        19         -        72
CH2I2                   38         -         -        20         -         1
CH2IBr                  39         -         -        21         -         2
CH2ICl                  40         -         -        22         -         3
CH2O                    41        20        18        23         -       263
CH3Br                   42         -         -        24         -       100
CH3CCl3                 43         -         -        25         -        43
CH3Cl                   44         -         -        26         -       149
CH3I                    45         -         -        27         -        46
CH4                     46         -         -         -         -       190
CHBr3                   47         -         -        28         -        77
CHCl3                   48         -         -        29         -        78
Cl                      49         -         -         -         -       290
Cl2                     50        21         -        30         -       197
Cl2O2                   51         -         -        31         -        75
ClNO2                   52        22         -        32         -       235
ClNO3                   53        23         -        33         -       262
ClO                     54        24         -        34         -       285
ClOO                    55        25         -        35         -       103
CLOCK                   56         -         -         -         -         -
CO                      57         -         -         -         -       267
CSL                     58        26        19         -         -       115
DMS                     59         -         -         -         -        90
DST1                    60        27        20         -         -         -
DST2                    61        28        21         -         -         -
DST3                    62        29        22         -         -         -
DST4                    63        30        23         -         -         -
EOH                     64        31        24         -         -       133
ETHLN                   65        32        25        36         -       208
ETHN                    66        33        26         -         -        68
ETHP                    67        34        27        37         -       120
ETNO3                   68        35         -        38         -        96
ETP                     69        36        28        39         -       110
FURA                    70        37        29         -         -        41
GLYC                    71        38        30        40         -       236
GLYX                    72        39        31        41         -       223
H1211                   73         -         -        42         -        59
H1301                   74         -         -        43         -        47
H2402                   75         -         -        44         -        48
H2O                     76         -         -         -         -       278
H2O2                    77        40        32        45         -       212
HAC                     78        41        33        46         -       250
HBr                     79        42        34         -         -       289
HC5A                    80        43        35        47         -       192
HCFC123                 81         -         -        48         -        81
HCFC141b                82         -         -        49         -        82
HCFC142b                83         -         -        50         -        83
HCFC22                  84         -         -        51         -        84
HCl                     85        44        36         -         -       275
HCOOH                   86        45        37         -         -       211
HI                      87        46        38         -         -        69
HMHP                    88        47        39        52         -        85
HMML                    89        48        40         -         -       105
HMS                     90        49        41         -         -        86
HNO2                    91         -         -        53         -       193
HNO3                    92        50        42        54         -       265
HNO4                    93         -         -        55         -       102
HOBr                    94        51        43        56         -       260
HOCl                    95        52        44        57         -       271
HOI                     96        53        45        58         -       268
HONIT                   97        54        46        59         -       134
HPALD1                  98        55         -        60         -       186
HPALD2                  99        56         -        61         -       188
HPALD3                 100        57         -        62         -       129
HPALD4                 101        58         -        63         -       127
HPETHNL                102        59        47        64         -       172
I                      103         -         -         -         -       269
I2                     104        60        48        65         -       143
I2O2                   105        61        49        66         -        44
I2O3                   106        62        50        67         -        49
I2O4                   107        63        51        68         -        42
IBr                    108        64        52        69         -        73
ICHE                   109        65        53         -         -       174
ICl                    110        66        54        70         -        99
ICN                    111        67        55        71         -       240
ICPDH                  112        68        56        72         -       206
IDC                    113        69         -         -         -       109
IDCHP                  114        70        57        73         -       125
IDHDP                  115        71        58        74         -       141
IDHPE                  116        72        59        75         -       164
IDN                    117        73        60        76         -       243
IEPOXA                 118        74        61         -         -       130
IEPOXB                 119        75        62         -         -       131
IEPOXD                 120        76        63         -         -       116
IHN1                   121        77        64        77         -       220
IHN2                   122        78        65        78         -       139
IHN3                   123        79        66        79         -       140
IHN4                   124        80        67        80         -       214
INDIOL                 125        81        68         -         -         8
INO                    126         -         -        81         -        60
INPB                   127        82        69        82         -       181
INPD                   128        83        70        83         -       151
IO                     129         -         -        84         -       227
IONITA                 130        84        71         -         -        98
IONO                   131        85        72        85         -       203
IONO2                  132        86        73        86         -       270
IPRNO3                 133        87         -        87         -        87
ISALA                  134        88        74         -         -         9
ISALC                  135        89        75         -         -        10
ISOP                   136         -         -         -         -       224
ITCN                   137        90        76        88         -       213
ITHN                   138        91        77        89         -       242
LIMO                   139        92        78         -         -       170
LVOC                   140        93        79         -         -        24
LVOCOA                 141        94        80         -         -        23
MACR                   142        95         -        90         -       251
MACR1OOH               143        96        81        91         -       136
MAP                    144        97        82        92         -        88
MCRDH                  145        98        83         -         -       132
MCRENOL                146        99        84        93         -       163
MCRHN                  147       100        85        94         -       200
MCRHNB                 148       101        86        95         -       175
MCRHP                  149       102        87        96         -       231
MCT                    150       103        88         -         -       142
MEK                    151         -        89        97         -       226
MENO3                  152       104         -        98         -        89
MGLY                   153       105        90        99         -       233
MOH                    154       106        91         -         -       218
MONITA                 155       107        92         -         -        45
MONITS                 156       108        93       100         -       178
MONITU                 157       109        94       101         -       199
MP                     158         -        95       102         -       137
MPAN                   159       110        96       103         -       153
MPN                    160         -        97       104         -        74
MSA                    161       111        98         -         -        28
MTPA                   162       112        99         -         -       154
MTPO                   163       113       100         -         -       155
MVK                    164       114       101       105         -       248
MVKDH                  165       115       102         -         -       117
MVKHC                  166       116       103       106         -       169
MVKHCB                 167       117       104       107         -       185
MVKHP                  168       118       105       108         -       230
MVKN                   169       119       106       109         -       241
MVKPC                  170       120       107       110         -       156
N2O                    171         -         -       111         -        61
N2O5                   172       121         -       112         -       173
NH3                    173       122       108         -         -         -
NH4                    174       123       109         -         -         -
NIT                    175       124       110       113         -        62
NITs                   176       125       111       114         -        63
NO                     177         -         -       115         -       279
NO2                    178       126         -       116         -       291
NO3                    179         -         -       117         -       281
NPHEN                  180       127       112       118         -       210
NPRNO3                 181       128         -       119         -        91
O3                     182       129         -       120         -       282
OClO                   183         -         -       121         -       111
OCPI                   184       130       113         -         2         -
OCPO                   185       131       114         -         -         -
OCS                    186         -         -       122         -        66
OIO                    187         -         -       123         -        92
PAN                    188       132       115       124         -        67
pFe                    189       133       116         -         -         -
PHEN                   190       134       117         -         -       118
PIP                    191         -         -       125         -       119
PP                     192       135       118       126         -       112
PPN                    193       136       119         -         -        50
PROPNN                 194       137       120       127         -       198
PRPE                   195         -       121         -         -       253
PRPN                   196       138       122       128         -       113
PYAC                   197       139       123       129         -       104
R4N2                   198       140       124       130         -       202
R4P                    199       141       125       131         -        93
RA3P                   200       142       126       132         -        94
RB3P                   201       143       127       133         -        95
RCHO                   202         -         -       134         -       259
RIPA                   203       144       128       135         -       157
RIPB                   204       145       129       136         -       162
RIPC                   205       146       130       137         -       171
RIPD                   206       147       131       138         -       165
RP                     207       148       132       139         -       106
SALA                   208       149       133         -         3         -
SALAAL                 209       150       134         -         -       147
SALACL                 210       151       135         -         -       280
SALC                   211       152       136         -         4         -
SALCAL                 212       153       137         -         -       138
SALCCL                 213       154       138         -         -       287
SO2                    214       155       139         -         -       276
SO4                    215       156       140       140         5       122
SO4s                   216       157       141         -         -        29
SOAGX                  217       158       142         -         -        30
SOAIE                  218       159       143         -         -        31
SOAP                   219         -         -         -         -         -
SOAS                   220       160       144         -         -         -
TOLU                   221         -         -         -         -        79
XYLE                   222         -         -         -         -        80
CO2                    223         -         -         -         -         7
LBRO2H                 224         -         -         -         -        11
LBRO2N                 225         -         -         -         -        12
BRO2                   226         -         -         -         -        13
LISOPOH                227         -         -         -         -        14
LISOPNO3               228         -         -         -         -        15
LNRO2H                 229         -         -         -         -        16
LNRO2N                 230         -         -         -         -        17
NRO2                   231         -         -         -         -        18
NAP                    232         -         -         -         -        19
LTRO2H                 233         -         -         -         -        20
LTRO2N                 234         -         -         -         -        21
TRO2                   235         -         -         -         -        22
LXRO2H                 236         -         -         -         -        25
LXRO2N                 237         -         -         -         -        26
XRO2                   238         -         -         -         -        27
PH2SO4                 239         -         -         -         -        32
PSO4AQ                 240         -         -         -         -        33
POx                    241         -         -         -         -        34
LOx                    242         -         -         -         -        35
PCO                    243         -         -         -         -        36
LCO                    244         -         -         -         -        37
PSO4                   245         -         -         -         -        38
LCH4                   246         -         -         -         -        39
PH2O2                  247         -         -         -         -        40
N                      248         -         -         -         -        65
ETO                    249         -         -         -         -       108
HPALD1OO               250         -         -         -         -       121
HPALD2OO               251         -         -         -         -       123
INA                    252         -         -         -         -       126
C4HVP1                 253         -         -         -         -       144
C4HVP2                 254         -         -         -         -       145
IDNOO                  255         -         -         -         -       146
ICNOO                  256         -         -         -         -       150
ISOPNOO2               257         -         -         -         -       152
ROH                    258         -         -         -         -       158
BENZO                  259         -         -         -         -       160
IDHNDOO1               260         -         -         -         -       166
ISOPNOO1               261         -         -         -         -       167
IDHNDOO2               262         -         -         -         -       168
H                      263         -         -         -         -       177
ETOO                   264         -         -         -         -       179
BZCO3                  265         -         -         -         -       180
IHPOO1                 266         -         -         -         -       182
IHPOO2                 267         -         -         -         -       183
AROMRO2                268         -         -         -         -       184
IHPOO3                 269         -         -         -         -       187
IHPNDOO                270         -         -         -         -       189
BENZO2                 271         -         -         -         -       191
ICHOO                  272         -         -         -         -       194
CH3CHOO                273         -         -         -         -       195
PRN1                   274         -         -         -         -       201
MVKOHOO                275         -         -         -         -       204
MCROHOO                276         -         -         -         -       205
MACR1OO                277         -         -         -         -       207
PO2                    278         -         -         -         -       209
OLNN                   279         -         -         -         -       215
OLND                   280         -         -         -         -       216
ETO2                   281         -         -         -         -       217
IHPNBOO                282         -         -         -         -       222
LIMO2                  283         -         -         -         -       225
IEPOXAOO               284         -         -         -         -       228
IEPOXBOO               285         -         -         -         -       229
IDHNBOO                286         -         -         -         -       232
CH2OO                  287         -         -         -         -       234
A3O2                   288         -         -         -         -       237
PIO2                   289         -         -         -         -       238
OTHRO2                 290         -         -         -         -       239
IHOO4                  291         -         -         -         -       244
IHOO1                  292         -         -         -         -       245
INO2D                  293         -         -         -         -       246
INO2B                  294         -         -         -         -       247
MACRNO2                295         -         -         -         -       249
ATO2                   296         -         -         -         -       252
KO2                    297         -         -         -         -       254
RCO3                   298         -         -         -         -       255
R4O2                   299         -         -         -         -       256
R4N1                   300         -         -         -         -       257
B3O2                   301         -         -         -         -       258
MCO3                   302         -         -         -         -       261
MO2                    303         -         -         -         -       266
O1D                    304         -         -         -         -       272
HO2                    305         -         -         -         -       284
OH                     306         -         -         -         -       286
O                      307         -         -         -         -       288
H2                     308         -         -         -         -       292
N2                     309         -         -         -         -       293
O2                     310         -         -       141         -       294
RCOOH                  311         -         -         -         -       295
===============================================================================
===============================================================================
V E R T I C A L   G R I D   S E T U P

INIT_PRESSURE: Vertical coordinates!

Ap 
   0.000000    0.048048    6.593752   13.134800   19.613110   26.092010
  32.570810   38.982010   45.339010   51.696110   58.053210   64.362640
  70.621980   78.834220   89.099920   99.365210  109.181700  118.958600
 128.695900  142.910000  156.260000  169.609000  181.619000  193.097000
 203.259000  212.150000  218.776000  223.898000  224.363000  216.865000
 201.192000  176.930000  150.393000  127.837000  108.663000   92.365720
  78.512310   56.387910   40.175410   28.367810   19.791600    9.292942
   4.076571    1.650790    0.616779    0.211349    0.066000    0.010000

Bp 
   1.000000    0.984952    0.963406    0.941865    0.920387    0.898908
   0.877429    0.856018    0.834661    0.813304    0.791947    0.770637
   0.749378    0.721166    0.685900    0.650635    0.615818    0.581041
   0.546304    0.494590    0.443740    0.392891    0.343381    0.294403
   0.246741    0.200350    0.156224    0.113602    0.063720    0.028010
   0.006960    0.000000    0.000000    0.000000    0.000000    0.000000
   0.000000    0.000000    0.000000    0.000000    0.000000    0.000000
   0.000000    0.000000    0.000000    0.000000    0.000000    0.000000
===============================================================================
READ_DRYDEP_INPUTS: Opening /shared/ucl/depts/uptrop/uclgcfs/gcgrid/gcdata/ExtData/CHEM_INPUTS/Olson_Land_Map_201203/Olson_2001_Drydep_Inputs.nc

LINOZ (LINOZ_READ): Opening /shared/ucl/depts/uptrop/uclgcfs/gcgrid/gcdata/ExtData/CHEM_INPUTS/Linoz_200910/Linoz_March2007.dat
HISTORY (INIT): Opening ./HISTORY.rc

===============================================================================
DEFINED DIAGNOSTIC COLLECTIONS:
===============================================================================
 Collection        Restart
   -> FileName     ./Restarts/norrtmg_normalchem/GEOSChem.Restart.%y4%m2%d2_%h2%n2z.nc4
   -> Frequency    00000001000000
   -> Duration     00000001000000
   -> Mode         instantaneous
 Collection        Metrics
   -> FileName     OutputDir/norrtmg_normalchem/GEOSChem.Metrics.%y4%m2%d2_%h2%n2z.nc4
   -> Frequency    End
   -> Duration     End
   -> Mode         time-averaged
 Collection        SpeciesConc
   -> FileName     OutputDir/norrtmg_normalchem/GEOSChem.SpeciesConc.%y4%m2%d2_%h2%n2z.nc4
   -> Frequency    00000001000000
   -> Duration     00000001000000
   -> Mode         time-averaged
 Collection        Aerosols
   -> FileName     OutputDir/norrtmg_normalchem/GEOSChem.Aerosols.%y4%m2%d2_%h2%n2z.nc4
   -> Frequency    00000001000000
   -> Duration     00000001000000
   -> Mode         time-averaged
 Collection        ConcAfterChem
   -> FileName     OutputDir/norrtmg_normalchem/GEOSChem.ConcAfterChem.%y4%m2%d2_%h2%n2z.nc4
   -> Frequency    00000001000000
   -> Duration     00000001000000
   -> Mode         time-averaged
===============================================================================

%%%%%%%%%%%%%%%%%%%%%%%%%%%%%%%%%%%%%%%%%%%%%%%%%%%%%%%%%%%%%%%%%%%%%%%%%%%%%%%
%%%%%               HEMCO: Harmonized Emissions Component                 %%%%%
%%%%%               You are using HEMCO version 3.8.0                     %%%%%
%%%%%%%%%%%%%%%%%%%%%%%%%%%%%%%%%%%%%%%%%%%%%%%%%%%%%%%%%%%%%%%%%%%%%%%%%%%%%%%
  
Reading settings & switches of HEMCO configuration file: HEMCO_Config.rc

HEMCO verbose output is OFF
  
Reading fields of HEMCO configuration file: HEMCO_Config.rc
  
Reading entire HEMCO configuration file: HEMCO_Config.rc.gmao_metfields
Using HEMCO extension: ParaNOx (ship emission plumes)
HEMCO (PARANOX): Opening /shared/ucl/depts/uptrop/uclgcfs/gcgrid/gcdata/ExtData/HEMCO/PARANOX/v2015-02/ship_plume_lut_02ms.nc
HEMCO (PARANOX): Opening /shared/ucl/depts/uptrop/uclgcfs/gcgrid/gcdata/ExtData/HEMCO/PARANOX/v2015-02/ship_plume_lut_06ms.nc
HEMCO (PARANOX): Opening /shared/ucl/depts/uptrop/uclgcfs/gcgrid/gcdata/ExtData/HEMCO/PARANOX/v2015-02/ship_plume_lut_10ms.nc
HEMCO (PARANOX): Opening /shared/ucl/depts/uptrop/uclgcfs/gcgrid/gcdata/ExtData/HEMCO/PARANOX/v2015-02/ship_plume_lut_14ms.nc
HEMCO (PARANOX): Opening /shared/ucl/depts/uptrop/uclgcfs/gcgrid/gcdata/ExtData/HEMCO/PARANOX/v2015-02/ship_plume_lut_18ms.nc
HEMCO (LIGHTNOX): Opening /shared/ucl/depts/uptrop/uclgcfs/gcgrid/gcdata/ExtData/HEMCO/LIGHTNOX/v2014-07/light_dist.ott2010.dat
Using HEMCO extension: LightNOx (lightning NOx emissions
Using HEMCO extension: Volcano (volcanic SO2 emissions)
Using HEMCO extension: SeaFlux (air-sea flux emissions)
Using HEMCO extension: MEGAN (biogenic emissions)
Using HEMCO extension: GFED (biomass burning)
Using HEMCO extension: Inorg_Iodine (HOI and I2 emissions)
HEMCO: Opening /shared/ucl/depts/uptrop/uclgcfs/gcgrid/gcdata/ExtData/HEMCO/XIAO/v2014-09/C3H8_C2H6_ngas.geos.1x1.nc
HEMCO: Opening /shared/ucl/depts/uptrop/uclgcfs/gcgrid/gcdata/ExtData/HEMCO/BIOFUEL/v2019-08/biofuel.geos.2x25.nc
HEMCO: Opening /shared/ucl/depts/uptrop/uclgcfs/gcgrid/gcdata/ExtData/HEMCO/BROMINE/v2015-02/Bromocarb_Liang2010.nc
HEMCO: Opening /shared/ucl/depts/uptrop/uclgcfs/gcgrid/gcdata/ExtData/HEMCO/ACET/v2014-07/ACET_seawater.generic.1x1.nc
HEMCO: Opening /shared/ucl/depts/uptrop/uclgcfs/gcgrid/gcdata/ExtData/HEMCO/MOH/v2019-12/MOH_seawater.low.kgCm3.generic.1x1.nc
HEMCO: Opening /shared/ucl/depts/uptrop/uclgcfs/gcgrid/gcdata/ExtData/HEMCO/MEGAN/v2018-05/MEGAN2.1_EF.geos.025x03125.nc
HEMCO: Opening /shared/ucl/depts/uptrop/uclgcfs/gcgrid/gcdata/ExtData/HEMCO/MEGAN/v2018-05/CLM4_PFT.geos.025x03125.v201805.nc
HEMCO: Opening /shared/ucl/depts/uptrop/uclgcfs/gcgrid/gcdata/ExtData/HEMCO/TIMEZONES/v2015-02/timezones_voronoi_1x1.nc
HEMCO: Opening /shared/ucl/depts/uptrop/uclgcfs/gcgrid/gcdata/ExtData/GEOS_4x5/MERRA2/2015/01/MERRA2.20150101.CN.4x5.nc4
HEMCO: Opening ./Restarts/GEOSChem.Restart.20200101_0000z.nc4
HEMCO: Opening /shared/ucl/depts/uptrop/uclgcfs/gcgrid/gcdata/ExtData/HEMCO/OLSON_MAP/v2019-02/Olson_2001_Land_Type_Masks.025x025.generic.nc
HEMCO: Opening /shared/ucl/depts/uptrop/uclgcfs/gcgrid/gcdata/ExtData/HEMCO/SfcFix/v2019-12/surface_VMR_OCS.2x25.nc
HEMCO: Opening /shared/ucl/depts/uptrop/uclgcfs/gcgrid/gcdata/ExtData/HEMCO/SfcFix/v2019-12/surface_VMR_H2.2x25.nc
HEMCO: Opening /shared/ucl/depts/uptrop/uclgcfs/gcgrid/gcdata/ExtData/HEMCO/OCEAN_O3_DRYDEP/v2020-02/WOA_2013_salinity.nc
HEMCO: Opening /shared/ucl/depts/uptrop/uclgcfs/gcgrid/gcdata/ExtData/HEMCO/AnnualScalar/v2014-07/AnnualScalar.geos.1x1.nc
HEMCO: Opening /shared/ucl/depts/uptrop/uclgcfs/gcgrid/gcdata/ExtData/HEMCO/EDGARv42/v2015-02/NO/EDGAR_hourly_NOxScal.nc
HEMCO: Opening /shared/ucl/depts/uptrop/uclgcfs/gcgrid/gcdata/ExtData/HEMCO/VerticalScaleFactors/v2021-05/gc_layers.nc
HEMCO: Opening /shared/ucl/depts/uptrop/uclgcfs/gcgrid/gcdata/ExtData/HEMCO/MASKS/v2018-09/China_mask.generic.1x1.nc
HEMCO: Opening /shared/ucl/depts/uptrop/uclgcfs/gcgrid/gcdata/ExtData/HEMCO/MASKS/v2019-05/India_mask.generic.1x1.nc
HEMCO: Opening /shared/ucl/depts/uptrop/uclgcfs/gcgrid/gcdata/ExtData/HEMCO/AnnualScalar/v2014-07/AnnualScalar.geos.1x1.nc
HEMCO: Opening /shared/ucl/depts/uptrop/uclgcfs/gcgrid/gcdata/ExtData/HEMCO/CEDS/v2021-06/2019/NO-em-anthro_CMIP_CEDS_2019.nc
HEMCO: Opening /shared/ucl/depts/uptrop/uclgcfs/gcgrid/gcdata/ExtData/HEMCO/CEDS/v2021-06/2019/CO-em-anthro_CMIP_CEDS_2019.nc
HEMCO: Opening /shared/ucl/depts/uptrop/uclgcfs/gcgrid/gcdata/ExtData/HEMCO/CEDS/v2021-06/2019/SO2-em-anthro_CMIP_CEDS_2019.nc
HEMCO: Opening /shared/ucl/depts/uptrop/uclgcfs/gcgrid/gcdata/ExtData/HEMCO/CEDS/v2021-06/2019/NH3-em-anthro_CMIP_CEDS_2019.nc
HEMCO: Opening /shared/ucl/depts/uptrop/uclgcfs/gcgrid/gcdata/ExtData/HEMCO/CEDS/v2021-06/2019/BC-em-anthro_CMIP_CEDS_2019.nc
HEMCO: Opening /shared/ucl/depts/uptrop/uclgcfs/gcgrid/gcdata/ExtData/HEMCO/CEDS/v2021-06/2019/OC-em-anthro_CMIP_CEDS_2019.nc
HEMCO: Opening /shared/ucl/depts/uptrop/uclgcfs/gcgrid/gcdata/ExtData/HEMCO/CEDS/v2021-06/2019/EOH-em-anthro_CMIP_CEDS_2019.nc
HEMCO: Opening /shared/ucl/depts/uptrop/uclgcfs/gcgrid/gcdata/ExtData/HEMCO/CEDS/v2021-06/2019/ALK4_butanes-em-anthro_CMIP_CEDS_2019.nc
HEMCO: Opening /shared/ucl/depts/uptrop/uclgcfs/gcgrid/gcdata/ExtData/HEMCO/CEDS/v2021-06/2019/ALK4_pentanes-em-anthro_CMIP_CEDS_2019.nc
HEMCO: Opening /shared/ucl/depts/uptrop/uclgcfs/gcgrid/gcdata/ExtData/HEMCO/CEDS/v2021-06/2019/ALK4_hexanes-em-anthro_CMIP_CEDS_2019.nc
HEMCO: Opening /shared/ucl/depts/uptrop/uclgcfs/gcgrid/gcdata/ExtData/HEMCO/CEDS/v2021-06/2019/C2H4-em-anthro_CMIP_CEDS_2019.nc
HEMCO: Opening /shared/ucl/depts/uptrop/uclgcfs/gcgrid/gcdata/ExtData/HEMCO/CEDS/v2021-06/2019/PRPE-em-anthro_CMIP_CEDS_2019.nc
HEMCO: Opening /shared/ucl/depts/uptrop/uclgcfs/gcgrid/gcdata/ExtData/HEMCO/CEDS/v2021-06/2019/C2H2-em-anthro_CMIP_CEDS_2019.nc
HEMCO: Opening /shared/ucl/depts/uptrop/uclgcfs/gcgrid/gcdata/ExtData/HEMCO/CEDS/v2021-06/2019/BENZ-em-anthro_CMIP_CEDS_2019.nc
HEMCO: Opening /shared/ucl/depts/uptrop/uclgcfs/gcgrid/gcdata/ExtData/HEMCO/CEDS/v2021-06/2019/TOLU-em-anthro_CMIP_CEDS_2019.nc
HEMCO: Opening /shared/ucl/depts/uptrop/uclgcfs/gcgrid/gcdata/ExtData/HEMCO/CEDS/v2021-06/2019/XYLE-em-anthro_CMIP_CEDS_2019.nc
HEMCO: Opening /shared/ucl/depts/uptrop/uclgcfs/gcgrid/gcdata/ExtData/HEMCO/CEDS/v2021-06/2019/CH2O-em-anthro_CMIP_CEDS_2019.nc
HEMCO: Opening /shared/ucl/depts/uptrop/uclgcfs/gcgrid/gcdata/ExtData/HEMCO/CEDS/v2021-06/2019/ALD2-em-anthro_CMIP_CEDS_2019.nc
HEMCO: Opening /shared/ucl/depts/uptrop/uclgcfs/gcgrid/gcdata/ExtData/HEMCO/CEDS/v2021-06/2019/MEK-em-anthro_CMIP_CEDS_2019.nc
HEMCO: Opening /shared/ucl/depts/uptrop/uclgcfs/gcgrid/gcdata/ExtData/HEMCO/CEDS/v2021-06/2019/HCOOH-em-anthro_CMIP_CEDS_2019.nc
HEMCO: Opening /shared/ucl/depts/uptrop/uclgcfs/gcgrid/gcdata/ExtData/HEMCO/NH3/v2019-08/NH3_geos.2x25.nc
HEMCO: Opening /shared/ucl/depts/uptrop/uclgcfs/gcgrid/gcdata/ExtData/HEMCO/NH3/v2018-04/NH3_Arctic_seabirds.nc
HEMCO: Opening /shared/ucl/depts/uptrop/uclgcfs/gcgrid/gcdata/ExtData/HEMCO/C2H6_2010/v2019-06/C2H6_global_anth_biof.201001.2x25.nc
HEMCO: Opening /shared/ucl/depts/uptrop/uclgcfs/gcgrid/gcdata/ExtData/HEMCO/IODINE/v2020-02/CH3I_monthly_emissions_Ordonez_2012_COARDS.nc
HEMCO: Opening /shared/ucl/depts/uptrop/uclgcfs/gcgrid/gcdata/ExtData/HEMCO/IODINE/v2020-02/CH2I2_monthly_emissions_Ordonez_2012_COARDS.nc
HEMCO: Opening /shared/ucl/depts/uptrop/uclgcfs/gcgrid/gcdata/ExtData/HEMCO/IODINE/v2020-02/CH2ICl_monthly_emissions_Ordonez_2012_COARDS.nc
HEMCO: Opening /shared/ucl/depts/uptrop/uclgcfs/gcgrid/gcdata/ExtData/HEMCO/IODINE/v2020-02/CH2IBr_monthly_emissions_Ordonez_2012_COARDS.nc
HEMCO: Opening /shared/ucl/depts/uptrop/uclgcfs/gcgrid/gcdata/ExtData/HEMCO/CEDS/v2021-06/2019/CO-em-anthro_CMIP_CEDS_2019.nc
HEMCO: Opening /shared/ucl/depts/uptrop/uclgcfs/gcgrid/gcdata/ExtData/HEMCO/CEDS/v2021-06/2019/SO2-em-anthro_CMIP_CEDS_2019.nc
HEMCO: Opening /shared/ucl/depts/uptrop/uclgcfs/gcgrid/gcdata/ExtData/HEMCO/CEDS/v2021-06/2019/NH3-em-anthro_CMIP_CEDS_2019.nc
HEMCO: Opening /shared/ucl/depts/uptrop/uclgcfs/gcgrid/gcdata/ExtData/HEMCO/CEDS/v2021-06/2019/BC-em-anthro_CMIP_CEDS_2019.nc
HEMCO: Opening /shared/ucl/depts/uptrop/uclgcfs/gcgrid/gcdata/ExtData/HEMCO/CEDS/v2021-06/2019/OC-em-anthro_CMIP_CEDS_2019.nc
HEMCO: Opening /shared/ucl/depts/uptrop/uclgcfs/gcgrid/gcdata/ExtData/HEMCO/CEDS/v2021-06/2019/EOH-em-anthro_CMIP_CEDS_2019.nc
HEMCO: Opening /shared/ucl/depts/uptrop/uclgcfs/gcgrid/gcdata/ExtData/HEMCO/CEDS/v2021-06/2019/C2H6-em-anthro_CMIP_CEDS_2019.nc
HEMCO: Opening /shared/ucl/depts/uptrop/uclgcfs/gcgrid/gcdata/ExtData/HEMCO/CEDS/v2021-06/2019/C3H8-em-anthro_CMIP_CEDS_2019.nc
HEMCO: Opening /shared/ucl/depts/uptrop/uclgcfs/gcgrid/gcdata/ExtData/HEMCO/CEDS/v2021-06/2019/ALK4_butanes-em-anthro_CMIP_CEDS_2019.nc
HEMCO: Opening /shared/ucl/depts/uptrop/uclgcfs/gcgrid/gcdata/ExtData/HEMCO/CEDS/v2021-06/2019/ALK4_pentanes-em-anthro_CMIP_CEDS_2019.nc
HEMCO: Opening /shared/ucl/depts/uptrop/uclgcfs/gcgrid/gcdata/ExtData/HEMCO/CEDS/v2021-06/2019/ALK4_hexanes-em-anthro_CMIP_CEDS_2019.nc
HEMCO: Opening /shared/ucl/depts/uptrop/uclgcfs/gcgrid/gcdata/ExtData/HEMCO/CEDS/v2021-06/2019/C2H4-em-anthro_CMIP_CEDS_2019.nc
HEMCO: Opening /shared/ucl/depts/uptrop/uclgcfs/gcgrid/gcdata/ExtData/HEMCO/CEDS/v2021-06/2019/PRPE-em-anthro_CMIP_CEDS_2019.nc
HEMCO: Opening /shared/ucl/depts/uptrop/uclgcfs/gcgrid/gcdata/ExtData/HEMCO/CEDS/v2021-06/2019/C2H2-em-anthro_CMIP_CEDS_2019.nc
HEMCO: Opening /shared/ucl/depts/uptrop/uclgcfs/gcgrid/gcdata/ExtData/HEMCO/CEDS/v2021-06/2019/BENZ-em-anthro_CMIP_CEDS_2019.nc
HEMCO: Opening /shared/ucl/depts/uptrop/uclgcfs/gcgrid/gcdata/ExtData/HEMCO/CEDS/v2021-06/2019/TOLU-em-anthro_CMIP_CEDS_2019.nc
HEMCO: Opening /shared/ucl/depts/uptrop/uclgcfs/gcgrid/gcdata/ExtData/HEMCO/CEDS/v2021-06/2019/XYLE-em-anthro_CMIP_CEDS_2019.nc
HEMCO: Opening /shared/ucl/depts/uptrop/uclgcfs/gcgrid/gcdata/ExtData/HEMCO/CEDS/v2021-06/2019/CH2O-em-anthro_CMIP_CEDS_2019.nc
HEMCO: Opening /shared/ucl/depts/uptrop/uclgcfs/gcgrid/gcdata/ExtData/HEMCO/CEDS/v2021-06/2019/ALD2-em-anthro_CMIP_CEDS_2019.nc
HEMCO: Opening /shared/ucl/depts/uptrop/uclgcfs/gcgrid/gcdata/ExtData/HEMCO/CEDS/v2021-06/2019/MEK-em-anthro_CMIP_CEDS_2019.nc
HEMCO: Opening /shared/ucl/depts/uptrop/uclgcfs/gcgrid/gcdata/ExtData/HEMCO/CEDS/v2021-06/2019/HCOOH-em-anthro_CMIP_CEDS_2019.nc
HEMCO: Opening /shared/ucl/depts/uptrop/uclgcfs/gcgrid/gcdata/ExtData/HEMCO/CEDS/v2021-06/2019/NO-em-anthro_CMIP_CEDS_2019.nc
HEMCO: Opening /shared/ucl/depts/uptrop/uclgcfs/gcgrid/gcdata/ExtData/HEMCO/AEIC2019/v2022-03/2019_monmean/AEIC_monmean_201901.0.5x0.625.36L.nc
HEMCO: Opening /shared/ucl/depts/uptrop/uclgcfs/gcgrid/gcdata/ExtData/HEMCO/ALD2/v2017-03/resp.geos.2x25.nc
HEMCO: Opening /shared/ucl/depts/uptrop/uclgcfs/gcgrid/gcdata/ExtData/HEMCO/AFCID/v2018-04/PM25FINE_ECLIPSE_2015.geos.2x25.nc
HEMCO: Opening /shared/ucl/depts/uptrop/uclgcfs/gcgrid/gcdata/ExtData/HEMCO/AFCID/v2018-04/PM25FINE_MEIC_2012.generic.025x025.nc
HEMCO: Opening /shared/ucl/depts/uptrop/uclgcfs/gcgrid/gcdata/ExtData/HEMCO/AFCID/v2018-04/PM25FINE_IITB_2013.generic.025x025.nc
HEMCO: Opening /shared/ucl/depts/uptrop/uclgcfs/gcgrid/gcdata/ExtData/HEMCO/DMS/v2015-07/DMS_lana.geos.1x1.nc
HEMCO: Opening /shared/ucl/depts/uptrop/uclgcfs/gcgrid/gcdata/ExtData/HEMCO/ALD2/v2017-03/ALD2_seawater.geos.2x25.nc
HEMCO: Opening /shared/ucl/depts/uptrop/uclgcfs/gcgrid/gcdata/ExtData/HEMCO/RONO2/v2019-05/RONO2_seawater.geos.2x25.nc
HEMCO: Opening /shared/ucl/depts/uptrop/uclgcfs/gcgrid/gcdata/ExtData/HEMCO/GFED4/v2023-03/2020/GFED4_gen.025x025.202001.nc
HEMCO: Opening /shared/ucl/depts/uptrop/uclgcfs/gcgrid/gcdata/ExtData/HEMCO/UVALBEDO/v2019-06/uvalbedo.geos.2x25.nc
HEMCO: Opening /shared/ucl/depts/uptrop/uclgcfs/gcgrid/gcdata/ExtData/HEMCO/STRAT/v2015-01/Bry/GEOSCCM_Bry.200701.day.nc
HEMCO: Opening /shared/ucl/depts/uptrop/uclgcfs/gcgrid/gcdata/ExtData/HEMCO/STRAT/v2015-01/Bry/GEOSCCM_Bry.200701.night.nc
HEMCO: Opening /shared/ucl/depts/uptrop/uclgcfs/gcgrid/gcdata/ExtData/HEMCO/GMI/v2015-02/gmi.clim.OH.geos5.2x25.nc
HEMCO: Opening /shared/ucl/depts/uptrop/uclgcfs/gcgrid/gcdata/ExtData/HEMCO/GMI/v2015-02/gmi.clim.ACET.geos5.2x25.nc
HEMCO: Opening /shared/ucl/depts/uptrop/uclgcfs/gcgrid/gcdata/ExtData/HEMCO/GMI/v2015-02/gmi.clim.ACTA.geos5.2x25.nc
HEMCO: Opening /shared/ucl/depts/uptrop/uclgcfs/gcgrid/gcdata/ExtData/HEMCO/GMI/v2015-02/gmi.clim.ALD2.geos5.2x25.nc
HEMCO: Opening /shared/ucl/depts/uptrop/uclgcfs/gcgrid/gcdata/ExtData/HEMCO/GMI/v2015-02/gmi.clim.ALK4.geos5.2x25.nc
HEMCO: Opening /shared/ucl/depts/uptrop/uclgcfs/gcgrid/gcdata/ExtData/HEMCO/GMI/v2015-02/gmi.clim.C2H6.geos5.2x25.nc
HEMCO: Opening /shared/ucl/depts/uptrop/uclgcfs/gcgrid/gcdata/ExtData/HEMCO/GMI/v2015-02/gmi.clim.C3H8.geos5.2x25.nc
HEMCO: Opening /shared/ucl/depts/uptrop/uclgcfs/gcgrid/gcdata/ExtData/HEMCO/GMI/v2015-02/gmi.clim.CCl4.geos5.2x25.nc
HEMCO: Opening /shared/ucl/depts/uptrop/uclgcfs/gcgrid/gcdata/ExtData/HEMCO/GMI/v2015-02/gmi.clim.CF2Cl2.geos5.2x25.nc
HEMCO: Opening /shared/ucl/depts/uptrop/uclgcfs/gcgrid/gcdata/ExtData/HEMCO/GMI/v2015-02/gmi.clim.CF2ClBr.geos5.2x25.nc
HEMCO: Opening /shared/ucl/depts/uptrop/uclgcfs/gcgrid/gcdata/ExtData/HEMCO/GMI/v2015-02/gmi.clim.CFC113.geos5.2x25.nc
HEMCO: Opening /shared/ucl/depts/uptrop/uclgcfs/gcgrid/gcdata/ExtData/HEMCO/GMI/v2015-02/gmi.clim.CFC114.geos5.2x25.nc
HEMCO: Opening /shared/ucl/depts/uptrop/uclgcfs/gcgrid/gcdata/ExtData/HEMCO/GMI/v2015-02/gmi.clim.CFC115.geos5.2x25.nc
HEMCO: Opening /shared/ucl/depts/uptrop/uclgcfs/gcgrid/gcdata/ExtData/HEMCO/GMI/v2015-02/gmi.clim.CFCl3.geos5.2x25.nc
HEMCO: Opening /shared/ucl/depts/uptrop/uclgcfs/gcgrid/gcdata/ExtData/HEMCO/GMI/v2015-02/gmi.clim.CH2O.geos5.2x25.nc
HEMCO: Opening /shared/ucl/depts/uptrop/uclgcfs/gcgrid/gcdata/ExtData/HEMCO/GMI/v2015-02/gmi.clim.CH3CCl3.geos5.2x25.nc
HEMCO: Opening /shared/ucl/depts/uptrop/uclgcfs/gcgrid/gcdata/ExtData/HEMCO/GMI/v2015-02/gmi.clim.CH3Cl.geos5.2x25.nc
HEMCO: Opening /shared/ucl/depts/uptrop/uclgcfs/gcgrid/gcdata/ExtData/HEMCO/GMI/v2015-02/gmi.clim.CH4.geos5.2x25.nc
HEMCO: Opening /shared/ucl/depts/uptrop/uclgcfs/gcgrid/gcdata/ExtData/HEMCO/GMI/v2015-02/gmi.clim.CO.geos5.2x25.nc
HEMCO: Opening /shared/ucl/depts/uptrop/uclgcfs/gcgrid/gcdata/ExtData/HEMCO/GMI/v2015-02/gmi.clim.Cl.geos5.2x25.nc
HEMCO: Opening /shared/ucl/depts/uptrop/uclgcfs/gcgrid/gcdata/ExtData/HEMCO/GMI/v2015-02/gmi.clim.Cl2.geos5.2x25.nc
HEMCO: Opening /shared/ucl/depts/uptrop/uclgcfs/gcgrid/gcdata/ExtData/HEMCO/GMI/v2015-02/gmi.clim.Cl2O2.geos5.2x25.nc
HEMCO: Opening /shared/ucl/depts/uptrop/uclgcfs/gcgrid/gcdata/ExtData/HEMCO/GMI/v2015-02/gmi.clim.ClO.geos5.2x25.nc
HEMCO: Opening /shared/ucl/depts/uptrop/uclgcfs/gcgrid/gcdata/ExtData/HEMCO/GMI/v2015-02/gmi.clim.EOH.geos5.2x25.nc
HEMCO: Opening /shared/ucl/depts/uptrop/uclgcfs/gcgrid/gcdata/ExtData/HEMCO/GMI/v2015-02/gmi.clim.ETP.geos5.2x25.nc
HEMCO: Opening /shared/ucl/depts/uptrop/uclgcfs/gcgrid/gcdata/ExtData/HEMCO/GMI/v2015-02/gmi.clim.GLYC.geos5.2x25.nc
HEMCO: Opening /shared/ucl/depts/uptrop/uclgcfs/gcgrid/gcdata/ExtData/HEMCO/GMI/v2015-02/gmi.clim.GLYX.geos5.2x25.nc
HEMCO: Opening /shared/ucl/depts/uptrop/uclgcfs/gcgrid/gcdata/ExtData/HEMCO/GMI/v2015-02/gmi.clim.H2402.geos5.2x25.nc
HEMCO: Opening /shared/ucl/depts/uptrop/uclgcfs/gcgrid/gcdata/ExtData/HEMCO/GMI/v2015-02/gmi.clim.H2O.geos5.2x25.nc
HEMCO: Opening /shared/ucl/depts/uptrop/uclgcfs/gcgrid/gcdata/ExtData/HEMCO/GMI/v2015-02/gmi.clim.H2O2.geos5.2x25.nc
HEMCO: Opening /shared/ucl/depts/uptrop/uclgcfs/gcgrid/gcdata/ExtData/HEMCO/GMI/v2015-02/gmi.clim.HAC.geos5.2x25.nc
HEMCO: Opening /shared/ucl/depts/uptrop/uclgcfs/gcgrid/gcdata/ExtData/HEMCO/GMI/v2015-02/gmi.clim.HCFC141b.geos5.2x25.nc
HEMCO: Opening /shared/ucl/depts/uptrop/uclgcfs/gcgrid/gcdata/ExtData/HEMCO/GMI/v2015-02/gmi.clim.HCFC142b.geos5.2x25.nc
HEMCO: Opening /shared/ucl/depts/uptrop/uclgcfs/gcgrid/gcdata/ExtData/HEMCO/GMI/v2015-02/gmi.clim.HCFC22.geos5.2x25.nc
HEMCO: Opening /shared/ucl/depts/uptrop/uclgcfs/gcgrid/gcdata/ExtData/HEMCO/GMI/v2015-02/gmi.clim.HCOOH.geos5.2x25.20170108.nc
HEMCO: Opening /shared/ucl/depts/uptrop/uclgcfs/gcgrid/gcdata/ExtData/HEMCO/GMI/v2015-02/gmi.clim.HCl.geos5.2x25.nc
HEMCO: Opening /shared/ucl/depts/uptrop/uclgcfs/gcgrid/gcdata/ExtData/HEMCO/GMI/v2015-02/gmi.clim.HNO2.geos5.2x25.nc
HEMCO: Opening /shared/ucl/depts/uptrop/uclgcfs/gcgrid/gcdata/ExtData/HEMCO/GMI/v2015-02/gmi.clim.HNO3.geos5.2x25.nc
HEMCO: Opening /shared/ucl/depts/uptrop/uclgcfs/gcgrid/gcdata/ExtData/HEMCO/GMI/v2015-02/gmi.clim.HNO4.geos5.2x25.nc
HEMCO: Opening /shared/ucl/depts/uptrop/uclgcfs/gcgrid/gcdata/ExtData/HEMCO/GMI/v2015-02/gmi.clim.HOCl.geos5.2x25.nc
HEMCO: Opening /shared/ucl/depts/uptrop/uclgcfs/gcgrid/gcdata/ExtData/HEMCO/GMI/v2015-02/gmi.clim.ISOP.geos5.2x25.nc
HEMCO: Opening /shared/ucl/depts/uptrop/uclgcfs/gcgrid/gcdata/ExtData/HEMCO/GMI/v2015-02/gmi.clim.MACR.geos5.2x25.nc
HEMCO: Opening /shared/ucl/depts/uptrop/uclgcfs/gcgrid/gcdata/ExtData/HEMCO/GMI/v2015-02/gmi.clim.MAP.geos5.2x25.nc
HEMCO: Opening /shared/ucl/depts/uptrop/uclgcfs/gcgrid/gcdata/ExtData/HEMCO/GMI/v2015-02/gmi.clim.MEK.geos5.2x25.nc
HEMCO: Opening /shared/ucl/depts/uptrop/uclgcfs/gcgrid/gcdata/ExtData/HEMCO/GMI/v2015-02/gmi.clim.MGLY.geos5.2x25.nc
HEMCO: Opening /shared/ucl/depts/uptrop/uclgcfs/gcgrid/gcdata/ExtData/HEMCO/GMI/v2015-02/gmi.clim.MOH.geos5.2x25.nc
HEMCO: Opening /shared/ucl/depts/uptrop/uclgcfs/gcgrid/gcdata/ExtData/HEMCO/GMI/v2015-02/gmi.clim.MP.geos5.2x25.nc
HEMCO: Opening /shared/ucl/depts/uptrop/uclgcfs/gcgrid/gcdata/ExtData/HEMCO/GMI/v2015-02/gmi.clim.MVK.geos5.2x25.nc
HEMCO: Opening /shared/ucl/depts/uptrop/uclgcfs/gcgrid/gcdata/ExtData/HEMCO/GMI/v2015-02/gmi.clim.N2O.geos5.2x25.nc
HEMCO: Opening /shared/ucl/depts/uptrop/uclgcfs/gcgrid/gcdata/ExtData/HEMCO/GMI/v2015-02/gmi.clim.N2O5.geos5.2x25.nc
HEMCO: Opening /shared/ucl/depts/uptrop/uclgcfs/gcgrid/gcdata/ExtData/HEMCO/GMI/v2015-02/gmi.clim.NO.geos5.2x25.nc
HEMCO: Opening /shared/ucl/depts/uptrop/uclgcfs/gcgrid/gcdata/ExtData/HEMCO/GMI/v2015-02/gmi.clim.NO2.geos5.2x25.nc
HEMCO: Opening /shared/ucl/depts/uptrop/uclgcfs/gcgrid/gcdata/ExtData/HEMCO/GMI/v2015-02/gmi.clim.NO3.geos5.2x25.nc
HEMCO: Opening /shared/ucl/depts/uptrop/uclgcfs/gcgrid/gcdata/ExtData/HEMCO/GMI/v2015-02/gmi.clim.O3.geos5.2x25.nc
HEMCO: Opening /shared/ucl/depts/uptrop/uclgcfs/gcgrid/gcdata/ExtData/HEMCO/GMI/v2015-02/gmi.clim.OClO.geos5.2x25.nc
HEMCO: Opening /shared/ucl/depts/uptrop/uclgcfs/gcgrid/gcdata/ExtData/HEMCO/GMI/v2015-02/gmi.clim.PAN.geos5.2x25.nc
HEMCO: Opening /shared/ucl/depts/uptrop/uclgcfs/gcgrid/gcdata/ExtData/HEMCO/GMI/v2015-02/gmi.clim.PP.geos5.2x25.nc
HEMCO: Opening /shared/ucl/depts/uptrop/uclgcfs/gcgrid/gcdata/ExtData/HEMCO/GMI/v2015-02/gmi.clim.PPN.geos5.2x25.nc
HEMCO: Opening /shared/ucl/depts/uptrop/uclgcfs/gcgrid/gcdata/ExtData/HEMCO/GMI/v2015-02/gmi.clim.PRPE.geos5.2x25.nc
HEMCO: Opening /shared/ucl/depts/uptrop/uclgcfs/gcgrid/gcdata/ExtData/HEMCO/GMI/v2015-02/gmi.clim.PRPN.geos5.2x25.nc
HEMCO: Opening /shared/ucl/depts/uptrop/uclgcfs/gcgrid/gcdata/ExtData/HEMCO/GMI/v2015-02/gmi.clim.R4N2.geos5.2x25.nc
HEMCO: Opening /shared/ucl/depts/uptrop/uclgcfs/gcgrid/gcdata/ExtData/HEMCO/GMI/v2015-02/gmi.clim.R4P.geos5.2x25.nc
HEMCO: Opening /shared/ucl/depts/uptrop/uclgcfs/gcgrid/gcdata/ExtData/HEMCO/GMI/v2015-02/gmi.clim.RA3P.geos5.2x25.nc
HEMCO: Opening /shared/ucl/depts/uptrop/uclgcfs/gcgrid/gcdata/ExtData/HEMCO/GMI/v2015-02/gmi.clim.RB3P.geos5.2x25.nc
HEMCO: Opening /shared/ucl/depts/uptrop/uclgcfs/gcgrid/gcdata/ExtData/HEMCO/GMI/v2015-02/gmi.clim.RCHO.geos5.2x25.nc
HEMCO: Opening /shared/ucl/depts/uptrop/uclgcfs/gcgrid/gcdata/ExtData/HEMCO/GMI/v2015-02/gmi.clim.RIPA.geos5.2x25.nc
HEMCO: Opening /shared/ucl/depts/uptrop/uclgcfs/gcgrid/gcdata/ExtData/HEMCO/GMI/v2015-02/gmi.clim.RIPB.geos5.2x25.nc
HEMCO: Opening /shared/ucl/depts/uptrop/uclgcfs/gcgrid/gcdata/ExtData/HEMCO/GMI/v2015-02/gmi.clim.RIPD.geos5.2x25.nc
HEMCO: Opening /shared/ucl/depts/uptrop/uclgcfs/gcgrid/gcdata/ExtData/HEMCO/GMI/v2015-02/gmi.clim.RP.geos5.2x25.nc
HEMCO: Opening /shared/ucl/depts/uptrop/uclgcfs/gcgrid/gcdata/ExtData/HEMCO/NOAA_GMD/v2018-01/monthly.gridded.surface.methane.1979-2020.1x1.nc
HEMCO: Opening /shared/ucl/depts/uptrop/uclgcfs/gcgrid/gcdata/ExtData/HEMCO/CMIP6/v2020-03/2x2.5/CMIP6_GHG_surface_VMR_2014.2x25.nc
HEMCO: Opening /shared/ucl/depts/uptrop/uclgcfs/gcgrid/gcdata/ExtData/HEMCO/SfcFix/v2019-12/WMO_2018/2x2.5/surface_VMRs_WMO2018_2020.2x25.nc
HEMCO: Opening /shared/ucl/depts/uptrop/uclgcfs/gcgrid/gcdata/ExtData/HEMCO/OCEAN_O3_DRYDEP/v2020-02/Oi_prj_predicted_iodide_0.125x0.125_No_Skagerrak_Just_Ensemble.nc
HEMCO: Opening /shared/ucl/depts/uptrop/uclgcfs/gcgrid/gcdata/ExtData/HEMCO/BROMINE/v2015-02/BromoCarb_Season.nc
HEMCO: Opening /shared/ucl/depts/uptrop/uclgcfs/gcgrid/gcdata/ExtData/HEMCO/OFFLINE_DUST/v2021-08/0.5x0.625/2020/01/dust_emissions_05.20200101.nc
HEMCO: Opening /shared/ucl/depts/uptrop/uclgcfs/gcgrid/gcdata/ExtData/HEMCO/OFFLINE_BIOVOC/v2021-12/0.5x0.625/2020/01/biovoc_05.20200101.nc
HEMCO: Opening /shared/ucl/depts/uptrop/uclgcfs/gcgrid/gcdata/ExtData/HEMCO/OFFLINE_SEASALT/v2019-01/0.5x0.625/2020/01/seasalt_05.20200101.nc
HEMCO: Opening /shared/ucl/depts/uptrop/uclgcfs/gcgrid/gcdata/ExtData/HEMCO/OFFLINE_SOILNOX/v2021-12/0.5x0.625/2020/01/soilnox_05.20200101.nc
HEMCO: Opening /shared/ucl/depts/uptrop/uclgcfs/gcgrid/gcdata/ExtData/GEOS_4x5/MERRA2/2020/01/MERRA2.20200101.A1.4x5.nc4
HEMCO: Opening /shared/ucl/depts/uptrop/uclgcfs/gcgrid/gcdata/ExtData/GEOS_4x5/MERRA2/2020/01/MERRA2.20200101.A3cld.4x5.nc4
HEMCO: Opening /shared/ucl/depts/uptrop/uclgcfs/gcgrid/gcdata/ExtData/GEOS_4x5/MERRA2/2020/01/MERRA2.20200101.A3dyn.4x5.nc4
HEMCO: Opening /shared/ucl/depts/uptrop/uclgcfs/gcgrid/gcdata/ExtData/GEOS_4x5/MERRA2/2020/01/MERRA2.20200101.A3mstC.4x5.nc4
HEMCO: Opening /shared/ucl/depts/uptrop/uclgcfs/gcgrid/gcdata/ExtData/GEOS_4x5/MERRA2/2020/01/MERRA2.20200101.A3mstE.4x5.nc4
HEMCO: Opening /shared/ucl/depts/uptrop/uclgcfs/gcgrid/gcdata/ExtData/GEOS_4x5/MERRA2/2020/01/MERRA2.20200101.I3.4x5.nc4
HEMCO: Opening /shared/ucl/depts/uptrop/uclgcfs/gcgrid/gcdata/ExtData/GEOS_4x5/MERRA2/2020/01/MERRA2.20200102.I3.4x5.nc4
HEMCO: Opening /shared/ucl/depts/uptrop/uclgcfs/gcgrid/gcdata/ExtData/HEMCO/Yuan_XLAI/v2021-06/Yuan_proc_MODIS_XLAI.025x025.2020.nc
HEMCO: Opening /shared/ucl/depts/uptrop/uclgcfs/gcgrid/gcdata/ExtData/HEMCO/OFFLINE_LIGHTNING/v2020-03/MERRA2/2020/FLASH_CTH_MERRA2_0.5x0.625_2020_01.nc4
HEMCO: Opening ./Restarts/GEOSChem.Restart.20200101_0000z.nc4
     - Found all CN     met fields for 2011/01/01 00:00
     - Found all A1     met fields for 2020/01/01 00:30
     - Found all A3cld  met fields for 2020/01/01 01:30
     - Found all A3dyn  met fields for 2020/01/01 01:30
     - Found all A3mstC met fields for 2020/01/01 01:30
     - Found all A3mstE met fields for 2020/01/01 01:30
     - Found all I3     met fields for 2020/01/01 00:00
 DELP_DRY not found in restart, set to zero
     - Found all I3     met fields for 2020/01/01 03:00
===============================================================================
R E S T A R T   F I L E   I N P U T

Min and Max of each species in restart file [mol/mol]:
Species   1,     ACET: Min = 2.850812220E-18  Max = 6.810301656E-09  Sum = 5.774473175E-05
Species   2,     ACTA: Min = 1.311802857E-19  Max = 1.121342752E-08  Sum = 3.664732958E-06
Species   3,     AERI: Min = 4.002508079E-16  Max = 1.398380283E-11  Sum = 4.530920705E-08
Species   4,     ALD2: Min = 3.276066652E-19  Max = 7.370496657E-09  Sum = 6.609082902E-06
Species   5,     ALK4: Min = 0.000000000E+00  Max = 2.398259547E-08  Sum = 2.995885006E-05
Species   6,   AONITA: Min = 4.579511687E-16  Max = 3.351649236E-10  Sum = 2.315492225E-07
Species   7,   AROMP4: Min = 4.578270398E-34  Max = 1.240562601E-11  Sum = 9.669877121E-10
Species   8,   AROMP5: Min = 0.000000000E+00  Max = 4.265748779E-12  Sum = 4.267741438E-10
Species   9,    ATOOH: Min = 1.737400384E-21  Max = 1.076141065E-09  Sum = 9.968359791E-07
Species  10,     BALD: Min = 0.000000000E+00  Max = 2.051275469E-11  Sum = 3.031718521E-08
Species  11,     BCPI: Min = 1.583918683E-15  Max = 1.044048847E-08  Sum = 6.958438462E-06
Species  12,     BCPO: Min = 0.000000000E+00  Max = 1.124889781E-08  Sum = 1.272640816E-06
Species  13,     BENZ: Min = 3.374243835E-36  Max = 2.532852372E-09  Sum = 3.639118404E-06
Species  14,    BENZP: Min = 3.166245050E-31  Max = 5.335034844E-11  Sum = 3.216921129E-07
Species  15,       Br: Min = 0.000000000E+00  Max = 2.340985565E-11  Sum = 1.675677908E-07
Species  16,      Br2: Min = 0.000000000E+00  Max = 1.494618145E-11  Sum = 4.494831174E-08
Species  17,     BrCl: Min = 4.229875950E-20  Max = 1.839442661E-11  Sum = 1.729754615E-07
Species  18,    BrNO2: Min = 8.225603565E-20  Max = 8.436982883E-12  Sum = 4.076999183E-09
Species  19,    BrNO3: Min = 0.000000000E+00  Max = 1.995248237E-11  Sum = 2.474902772E-07
Species  20,      BrO: Min = 0.000000000E+00  Max = 2.281027450E-11  Sum = 3.158408504E-07
Species  21,   BrSALA: Min = 1.729031206E-38  Max = 8.999326458E-12  Sum = 8.426867204E-09
Species  22,   BrSALC: Min = 1.135051756E-43  Max = 5.588972340E-11  Sum = 6.372637529E-08
Species  23,    BUTDI: Min = 3.769083163E-15  Max = 1.279975237E-09  Sum = 3.992113488E-05
Species  24,   BZCO3H: Min = 4.943780982E-42  Max = 1.462650530E-12  Sum = 3.066597198E-09
Species  25,    BZPAN: Min = 6.722028173E-38  Max = 1.095545182E-11  Sum = 2.114085262E-08
Species  26,     C2H2: Min = 2.525489673E-24  Max = 4.930371222E-09  Sum = 8.004322808E-06
Species  27,     C2H4: Min = 0.000000000E+00  Max = 7.920355927E-09  Sum = 5.759440228E-06
Species  28,     C2H6: Min = 4.199257342E-36  Max = 9.238680931E-09  Sum = 5.574735042E-05
Species  29,     C3H8: Min = 0.000000000E+00  Max = 9.275971991E-09  Sum = 1.732923010E-05
Species  30,     CCl4: Min = 0.000000000E+00  Max = 7.774015459E-11  Sum = 9.323252016E-06
Species  31,    CFC11: Min = 2.996390724E-24  Max = 2.248904257E-10  Sum = 2.720716657E-05
Species  32,   CFC113: Min = 1.794367521E-20  Max = 6.968006033E-11  Sum = 8.710367183E-06
Species  33,   CFC114: Min = 7.501196387E-13  Max = 1.584008792E-11  Sum = 2.136692274E-06
Species  34,   CFC115: Min = 5.653960806E-12  Max = 8.520006749E-12  Sum = 1.274417400E-06
Species  35,    CFC12: Min = 3.091623501E-14  Max = 5.028404360E-10  Sum = 6.384075095E-05
Species  36,   CH2Br2: Min = 1.710985425E-42  Max = 2.189759441E-12  Sum = 7.885494568E-08
Species  37,   CH2Cl2: Min = 1.467650405E-20  Max = 6.745597830E-11  Sum = 3.799006208E-06
Species  38,    CH2I2: Min = 0.000000000E+00  Max = 2.379057509E-13  Sum = 1.639283709E-10
Species  39,   CH2IBr: Min = 0.000000000E+00  Max = 3.545107730E-13  Sum = 3.584451347E-10
Species  40,   CH2ICl: Min = 0.000000000E+00  Max = 1.378735559E-12  Sum = 2.366124630E-09
Species  41,     CH2O: Min = 6.228731940E-12  Max = 1.820475326E-08  Sum = 2.334695455E-05
Species  42,    CH3Br: Min = 7.215786028E-29  Max = 6.928067495E-12  Sum = 7.560585686E-07
Species  43,  CH3CCl3: Min = 6.287878443E-40  Max = 1.526406931E-12  Sum = 1.821256035E-07
Species  44,    CH3Cl: Min = 7.556031098E-15  Max = 5.508190015E-10  Sum = 6.391981151E-05
Species  45,     CH3I: Min = 0.000000000E+00  Max = 2.658855081E-11  Sum = 3.302605833E-08
Species  46,      CH4: Min = 1.720329834E-07  Max = 2.045238489E-06  Sum = 2.511347234E-01
Species  47,    CHBr3: Min = 0.000000000E+00  Max = 5.576835868E-12  Sum = 7.528944934E-08
Species  48,    CHCl3: Min = 6.182741223E-18  Max = 1.462586129E-11  Sum = 1.078080800E-06
Species  49,       Cl: Min = 1.519007535E-41  Max = 1.357340490E-10  Sum = 5.710231790E-07
Species  50,      Cl2: Min = 1.491110898E-24  Max = 6.713533895E-11  Sum = 1.717993143E-07
Species  51,    Cl2O2: Min = 0.000000000E+00  Max = 1.819764617E-10  Sum = 5.849891949E-08
Species  52,    ClNO2: Min = 0.000000000E+00  Max = 2.269679028E-10  Sum = 9.874334239E-08
Species  53,    ClNO3: Min = 2.672458031E-20  Max = 1.578432607E-09  Sum = 1.264078583E-05
Species  54,      ClO: Min = 1.433625448E-22  Max = 4.959064825E-10  Sum = 3.556778211E-06
Species  55,     ClOO: Min = 1.684681035E-32  Max = 1.107431035E-14  Sum = 1.771567441E-11
Species  56,    CLOCK: Min = 1.226635590E+02  Max = 4.422673920E+09  Sum = 1.609645362E+14
Species  57,       CO: Min = 1.144243367E-08  Max = 1.084545488E-06  Sum = 8.284898475E-03
Species  58,      CSL: Min = 0.000000000E+00  Max = 6.869949054E-12  Sum = 3.079334565E-09
Species  59,      DMS: Min = 0.000000000E+00  Max = 3.457501396E-09  Sum = 3.010436785E-06
Species  60,     DST1: Min = 6.532529940E-33  Max = 5.268229231E-08  Sum = 4.938845814E-05
Species  61,     DST2: Min = 1.000189626E-36  Max = 9.269998458E-08  Sum = 3.944577111E-05
Species  62,     DST3: Min = 5.035187681E-40  Max = 1.271152428E-07  Sum = 4.229918341E-05
Species  63,     DST4: Min = 0.000000000E+00  Max = 5.363395772E-08  Sum = 1.217881072E-05
Species  64,      EOH: Min = 1.971064029E-24  Max = 2.306851155E-09  Sum = 2.545453299E-06
Species  65,    ETHLN: Min = 0.000000000E+00  Max = 2.543328742E-11  Sum = 3.777593349E-09
Species  66,     ETHN: Min = 1.293688930E-35  Max = 9.576660645E-12  Sum = 1.421600970E-08
Species  67,     ETHP: Min = 0.000000000E+00  Max = 2.198990157E-10  Sum = 3.368380987E-07
Species  68,    ETNO3: Min = 1.023844710E-40  Max = 1.047129137E-11  Sum = 1.938019381E-07
Species  69,      ETP: Min = 5.606791751E-21  Max = 2.554749190E-10  Sum = 9.124187841E-07
Species  70,     FURA: Min = 0.000000000E+00  Max = 1.690168450E-09  Sum = 2.904539897E-08
Species  71,     GLYC: Min = 0.000000000E+00  Max = 1.233015801E-09  Sum = 1.611254334E-06
Species  72,     GLYX: Min = 0.000000000E+00  Max = 1.467489352E-09  Sum = 1.162183878E-07
Species  73,    H1211: Min = 2.073046736E-32  Max = 3.290023852E-12  Sum = 3.865394262E-07
Species  74,    H1301: Min = 1.968316624E-24  Max = 3.330006410E-12  Sum = 4.098944828E-07
Species  75,    H2402: Min = 0.000000000E+00  Max = 3.900028900E-13  Sum = 4.600358849E-08
Species  76,      H2O: Min = 7.516333653E-07  Max = 3.237972781E-02  Sum = 4.901524963E+02
Species  77,     H2O2: Min = 1.074380571E-14  Max = 4.838192069E-09  Sum = 4.347806316E-05
Species  78,      HAC: Min = 1.994047715E-42  Max = 1.189932930E-09  Sum = 1.158382133E-06
Species  79,      HBr: Min = 6.153637989E-33  Max = 1.422178261E-11  Sum = 9.386475597E-08
Species  80,     HC5A: Min = 0.000000000E+00  Max = 5.587967936E-11  Sum = 2.350621209E-08
Species  81,  HCFC123: Min = 2.237873648E-42  Max = 8.977634344E-36  Sum = 3.239985692E-31
Species  82, HCFC141b: Min = 1.842935206E-22  Max = 2.562032878E-11  Sum = 3.163035899E-06
Species  83, HCFC142b: Min = 3.677661474E-12  Max = 2.264013803E-11  Sum = 3.102646360E-06
Species  84,   HCFC22: Min = 6.173891259E-11  Max = 2.475224470E-10  Sum = 3.421427755E-05
Species  85,      HCl: Min = 7.025480259E-16  Max = 3.265084425E-09  Sum = 8.452931797E-05
Species  86,    HCOOH: Min = 1.449107038E-25  Max = 8.482790470E-09  Sum = 6.719652447E-06
Species  87,       HI: Min = 0.000000000E+00  Max = 4.319185797E-13  Sum = 1.293631757E-09
Species  88,     HMHP: Min = 0.000000000E+00  Max = 8.467840873E-10  Sum = 5.011755206E-07
Species  89,     HMML: Min = 2.606415144E-43  Max = 9.941068801E-11  Sum = 6.769668204E-08
Species  90,      HMS: Min = 7.814929259E-15  Max = 9.975195114E-10  Sum = 5.982554967E-07
Species  91,     HNO2: Min = 9.523216655E-19  Max = 2.161008927E-09  Sum = 2.927317837E-07
Species  92,     HNO3: Min = 1.914680920E-17  Max = 1.348441536E-08  Sum = 1.342148753E-04
Species  93,     HNO4: Min = 2.487787051E-19  Max = 2.535372190E-10  Sum = 2.476783948E-06
Species  94,     HOBr: Min = 5.672131523E-19  Max = 2.016569377E-11  Sum = 1.384638040E-07
Species  95,     HOCl: Min = 7.225718410E-28  Max = 3.619641809E-10  Sum = 1.639103857E-06
Species  96,      HOI: Min = 5.055419200E-17  Max = 2.162285975E-11  Sum = 5.070270603E-08
Species  97,    HONIT: Min = 2.895696284E-37  Max = 8.291677067E-11  Sum = 1.275730366E-08
Species  98,   HPALD1: Min = 0.000000000E+00  Max = 6.121823881E-11  Sum = 1.034985342E-08
Species  99,   HPALD2: Min = 0.000000000E+00  Max = 1.319274551E-10  Sum = 3.238634250E-08
Species 100,   HPALD3: Min = 0.000000000E+00  Max = 4.488564381E-11  Sum = 9.572103998E-09
Species 101,   HPALD4: Min = 0.000000000E+00  Max = 9.622650593E-11  Sum = 2.447280423E-08
Species 102,  HPETHNL: Min = 0.000000000E+00  Max = 9.875211759E-11  Sum = 2.798504717E-08
Species 103,        I: Min = 0.000000000E+00  Max = 9.615164567E-13  Sum = 9.297940196E-09
Species 104,       I2: Min = 2.101106917E-41  Max = 1.566071627E-13  Sum = 9.492162611E-11
Species 105,     I2O2: Min = 0.000000000E+00  Max = 3.273009508E-14  Sum = 8.740309865E-11
Species 106,     I2O3: Min = 0.000000000E+00  Max = 3.065246353E-13  Sum = 2.553327549E-10
Species 107,     I2O4: Min = 0.000000000E+00  Max = 1.138675878E-14  Sum = 9.615395286E-12
Species 108,      IBr: Min = 0.000000000E+00  Max = 1.213519411E-12  Sum = 4.957665389E-10
Species 109,     ICHE: Min = 0.000000000E+00  Max = 1.492932583E-10  Sum = 7.679846448E-08
Species 110,      ICl: Min = 5.249786888E-24  Max = 1.020029460E-11  Sum = 5.146906457E-09
Species 111,      ICN: Min = 0.000000000E+00  Max = 2.619045536E-10  Sum = 2.685464473E-08
Species 112,    ICPDH: Min = 0.000000000E+00  Max = 3.151584549E-11  Sum = 1.793638482E-08
Species 113,      IDC: Min = 0.000000000E+00  Max = 6.920222034E-11  Sum = 3.007566107E-08
Species 114,    IDCHP: Min = 0.000000000E+00  Max = 2.289817988E-11  Sum = 1.308338859E-08
Species 115,    IDHDP: Min = 0.000000000E+00  Max = 9.787345240E-11  Sum = 3.748596100E-08
Species 116,    IDHPE: Min = 4.484155086E-44  Max = 2.810023325E-10  Sum = 1.875488493E-07
Species 117,      IDN: Min = 0.000000000E+00  Max = 3.420947206E-11  Sum = 2.471909788E-09
Species 118,   IEPOXA: Min = 0.000000000E+00  Max = 1.428390739E-09  Sum = 5.615986538E-07
Species 119,   IEPOXB: Min = 0.000000000E+00  Max = 8.127553630E-10  Sum = 3.279813825E-07
Species 120,   IEPOXD: Min = 0.000000000E+00  Max = 6.926605817E-11  Sum = 3.040095820E-08
Species 121,     IHN1: Min = 0.000000000E+00  Max = 2.047152899E-11  Sum = 3.292938811E-09
Species 122,     IHN2: Min = 0.000000000E+00  Max = 3.306092206E-11  Sum = 1.004651917E-08
Species 123,     IHN3: Min = 0.000000000E+00  Max = 1.766110175E-11  Sum = 8.004712448E-09
Species 124,     IHN4: Min = 0.000000000E+00  Max = 3.981006930E-12  Sum = 1.011723150E-09
Species 125,   INDIOL: Min = 1.829942346E-14  Max = 2.883052241E-09  Sum = 2.818692337E-06
Species 126,      INO: Min = 2.594784398E-22  Max = 7.095693255E-14  Sum = 1.192866812E-11
Species 127,     INPB: Min = 0.000000000E+00  Max = 2.379096919E-11  Sum = 6.260306495E-09
Species 128,     INPD: Min = 0.000000000E+00  Max = 2.543013369E-11  Sum = 6.269226471E-09
Species 129,       IO: Min = 3.070399114E-22  Max = 3.000934787E-12  Sum = 1.310543318E-08
Species 130,   IONITA: Min = 0.000000000E+00  Max = 4.790461083E-11  Sum = 1.506471214E-08
Species 131,     IONO: Min = 0.000000000E+00  Max = 2.197188557E-13  Sum = 9.376796006E-10
Species 132,    IONO2: Min = 1.947583101E-33  Max = 8.846259662E-12  Sum = 1.344994605E-08
Species 133,   IPRNO3: Min = 7.765605916E-24  Max = 8.146934516E-11  Sum = 6.208395007E-07
Species 134,    ISALA: Min = 4.557469375E-17  Max = 1.678988762E-12  Sum = 7.065090291E-09
Species 135,    ISALC: Min = 1.359320441E-20  Max = 1.466315784E-12  Sum = 2.857980741E-09
Species 136,     ISOP: Min = 0.000000000E+00  Max = 1.420200579E-08  Sum = 1.356563530E-06
Species 137,     ITCN: Min = 0.000000000E+00  Max = 2.683883844E-11  Sum = 1.023400920E-08
Species 138,     ITHN: Min = 0.000000000E+00  Max = 6.328289281E-11  Sum = 2.100678209E-08
Species 139,     LIMO: Min = 0.000000000E+00  Max = 1.137926489E-10  Sum = 5.681347393E-09
Species 140,     LVOC: Min = 0.000000000E+00  Max = 2.593143365E-12  Sum = 3.402409465E-10
Species 141,   LVOCOA: Min = 3.849168381E-16  Max = 5.200558387E-11  Sum = 6.949037612E-08
Species 142,     MACR: Min = 0.000000000E+00  Max = 1.205031408E-09  Sum = 5.523525033E-07
Species 143, MACR1OOH: Min = 0.000000000E+00  Max = 6.501209987E-11  Sum = 3.090340783E-08
Species 144,      MAP: Min = 3.018806502E-19  Max = 1.587053489E-09  Sum = 4.526437806E-06
Species 145,    MCRDH: Min = 0.000000000E+00  Max = 1.487619750E-10  Sum = 6.503800876E-08
Species 146,  MCRENOL: Min = 0.000000000E+00  Max = 2.532677366E-11  Sum = 8.587011102E-09
Species 147,    MCRHN: Min = 0.000000000E+00  Max = 2.863380323E-12  Sum = 1.328926080E-09
Species 148,   MCRHNB: Min = 0.000000000E+00  Max = 3.452019573E-11  Sum = 2.811763711E-09
Species 149,    MCRHP: Min = 7.006492322E-45  Max = 5.723748558E-11  Sum = 4.567414180E-08
Species 150,      MCT: Min = 7.286752014E-44  Max = 1.480924216E-12  Sum = 2.653957498E-09
Species 151,      MEK: Min = 1.065371285E-33  Max = 2.605531790E-09  Sum = 4.797609108E-06
Species 152,    MENO3: Min = 1.674997828E-14  Max = 2.643678679E-11  Sum = 4.498810426E-07
Species 153,     MGLY: Min = 8.621013391E-23  Max = 1.421242457E-09  Sum = 3.657670788E-07
Species 154,      MOH: Min = 9.533994687E-13  Max = 1.658358606E-08  Sum = 3.357750393E-05
Species 155,   MONITA: Min = 0.000000000E+00  Max = 8.174134980E-11  Sum = 5.370596412E-09
Species 156,   MONITS: Min = 1.821688004E-44  Max = 7.308387229E-11  Sum = 1.374996028E-08
Species 157,   MONITU: Min = 0.000000000E+00  Max = 1.607351058E-11  Sum = 2.001611987E-09
Species 158,       MP: Min = 1.006334298E-13  Max = 2.452670955E-09  Sum = 2.912514174E-05
Species 159,     MPAN: Min = 0.000000000E+00  Max = 7.160062127E-11  Sum = 3.152777239E-08
Species 160,      MPN: Min = 1.807785891E-16  Max = 1.413899137E-10  Sum = 2.376041266E-06
Species 161,      MSA: Min = 1.926856806E-14  Max = 1.025067253E-10  Sum = 8.613298519E-07
Species 162,     MTPA: Min = 0.000000000E+00  Max = 1.864580490E-09  Sum = 1.430034757E-07
Species 163,     MTPO: Min = 0.000000000E+00  Max = 1.210199441E-10  Sum = 4.849988855E-09
Species 164,      MVK: Min = 0.000000000E+00  Max = 2.165198909E-09  Sum = 1.163287266E-06
Species 165,    MVKDH: Min = 2.802596929E-45  Max = 5.864091435E-10  Sum = 3.251619773E-07
Species 166,    MVKHC: Min = 1.401298464E-45  Max = 1.249640391E-10  Sum = 9.036416770E-08
Species 167,   MVKHCB: Min = 4.203895393E-45  Max = 1.107842013E-10  Sum = 8.368510862E-08
Species 168,    MVKHP: Min = 2.802596929E-45  Max = 1.821255230E-10  Sum = 8.538111729E-08
Species 169,     MVKN: Min = 0.000000000E+00  Max = 2.654682550E-11  Sum = 1.160809848E-08
Species 170,    MVKPC: Min = 0.000000000E+00  Max = 4.826523556E-11  Sum = 2.767190566E-08
Species 171,      N2O: Min = 1.384627135E-10  Max = 3.299204536E-07  Sum = 4.240561649E-02
Species 172,     N2O5: Min = 0.000000000E+00  Max = 5.694130500E-09  Sum = 1.475596036E-05
Species 173,      NH3: Min = 4.946124289E-31  Max = 3.240911539E-08  Sum = 7.388919585E-06
Species 174,      NH4: Min = 2.421872856E-14  Max = 3.097608214E-08  Sum = 2.289713848E-05
Species 175,      NIT: Min = 0.000000000E+00  Max = 1.703945252E-08  Sum = 6.937470971E-06
Species 176,     NITs: Min = 1.234967162E-35  Max = 1.084478174E-09  Sum = 6.710719731E-07
Species 177,       NO: Min = 0.000000000E+00  Max = 1.598454169E-08  Sum = 9.948598017E-05
Species 178,      NO2: Min = 2.859641734E-21  Max = 2.283087142E-08  Sum = 1.071438019E-04
Species 179,      NO3: Min = 0.000000000E+00  Max = 6.242502071E-10  Sum = 1.151239644E-06
Species 180,    NPHEN: Min = 6.177482157E-33  Max = 2.201678943E-11  Sum = 4.607102699E-09
Species 181,   NPRNO3: Min = 2.134427657E-24  Max = 1.924268557E-11  Sum = 1.390703375E-07
Species 182,       O3: Min = 1.304738761E-09  Max = 1.040595907E-05  Sum = 1.386897415E-01
Species 183,     OClO: Min = 0.000000000E+00  Max = 1.085596266E-10  Sum = 2.078244705E-07
Species 184,     OCPI: Min = 1.584381904E-14  Max = 4.644613583E-08  Sum = 2.117630902E-05
Species 185,     OCPO: Min = 0.000000000E+00  Max = 2.476776118E-08  Sum = 2.411871492E-06
Species 186,      OCS: Min = 4.945284705E-25  Max = 5.000032055E-10  Sum = 6.131052942E-05
Species 187,      OIO: Min = 0.000000000E+00  Max = 3.723289038E-13  Sum = 2.413458100E-09
Species 188,      PAN: Min = 5.853418235E-20  Max = 1.620447332E-09  Sum = 8.140881619E-06
Species 189,      pFe: Min = 1.865084659E-17  Max = 3.103998308E-11  Sum = 2.549552924E-08
Species 190,     PHEN: Min = 4.528331861E-38  Max = 2.435706845E-11  Sum = 6.994735013E-09
Species 191,      PIP: Min = 0.000000000E+00  Max = 7.182464623E-10  Sum = 3.945324636E-07
Species 192,       PP: Min = 0.000000000E+00  Max = 2.244859160E-10  Sum = 1.761358561E-07
Species 193,      PPN: Min = 8.124429036E-20  Max = 9.891543140E-10  Sum = 2.580694854E-06
Species 194,   PROPNN: Min = 0.000000000E+00  Max = 2.463289572E-10  Sum = 3.383911817E-08
Species 195,     PRPE: Min = 0.000000000E+00  Max = 3.355245637E-09  Sum = 7.175830774E-07
Species 196,     PRPN: Min = 0.000000000E+00  Max = 1.021329549E-10  Sum = 8.773559657E-09
Species 197,     PYAC: Min = 0.000000000E+00  Max = 4.600232001E-11  Sum = 2.052002479E-08
Species 198,     R4N2: Min = 2.211842680E-33  Max = 1.287857876E-10  Sum = 1.433466679E-07
Species 199,      R4P: Min = 0.000000000E+00  Max = 8.902648063E-11  Sum = 5.380516086E-07
Species 200,     RA3P: Min = 7.387188361E-22  Max = 3.600062262E-11  Sum = 2.015127620E-07
Species 201,     RB3P: Min = 1.479958493E-21  Max = 1.239091885E-10  Sum = 5.515495900E-07
Species 202,     RCHO: Min = 1.164387979E-20  Max = 5.700765637E-09  Sum = 1.478329864E-06
Species 203,     RIPA: Min = 0.000000000E+00  Max = 1.349590550E-09  Sum = 4.101359821E-07
Species 204,     RIPB: Min = 0.000000000E+00  Max = 2.714073688E-10  Sum = 7.856192497E-08
Species 205,     RIPC: Min = 0.000000000E+00  Max = 5.237287340E-11  Sum = 1.262774418E-08
Species 206,     RIPD: Min = 0.000000000E+00  Max = 1.822404207E-11  Sum = 5.076891796E-09
Species 207,       RP: Min = 1.071004377E-20  Max = 7.945639979E-11  Sum = 3.951330996E-07
[...]
UCX (SFCMR_READ): Opening /shared/ucl/depts/uptrop/uclgcfs/gcgrid/gcdata/ExtData/CHEM_INPUTS/UCX_201403/NoonTime/Grid4x5/InitCFC_JNO2_10.dat
UCX (SFCMR_READ): Opening /shared/ucl/depts/uptrop/uclgcfs/gcgrid/gcdata/ExtData/CHEM_INPUTS/UCX_201403/NoonTime/Grid4x5/InitCFC_JNO3_10.dat
UCX (SFCMR_READ): Opening /shared/ucl/depts/uptrop/uclgcfs/gcgrid/gcdata/ExtData/CHEM_INPUTS/UCX_201403/NoonTime/Grid4x5/InitCFC_JN2O_10.dat
UCX (SFCMR_READ): Opening /shared/ucl/depts/uptrop/uclgcfs/gcgrid/gcdata/ExtData/CHEM_INPUTS/UCX_201403/NoonTime/Grid4x5/InitCFC_O_11.dat
UCX (SFCMR_READ): Opening /shared/ucl/depts/uptrop/uclgcfs/gcgrid/gcdata/ExtData/CHEM_INPUTS/UCX_201403/NoonTime/Grid4x5/InitCFC_O1D_11.dat
UCX (SFCMR_READ): Opening /shared/ucl/depts/uptrop/uclgcfs/gcgrid/gcdata/ExtData/CHEM_INPUTS/UCX_201403/NoonTime/Grid4x5/InitCFC_JNO_11.dat
UCX (SFCMR_READ): Opening /shared/ucl/depts/uptrop/uclgcfs/gcgrid/gcdata/ExtData/CHEM_INPUTS/UCX_201403/NoonTime/Grid4x5/InitCFC_JNO2_11.dat
UCX (SFCMR_READ): Opening /shared/ucl/depts/uptrop/uclgcfs/gcgrid/gcdata/ExtData/CHEM_INPUTS/UCX_201403/NoonTime/Grid4x5/InitCFC_JNO3_11.dat
UCX (SFCMR_READ): Opening /shared/ucl/depts/uptrop/uclgcfs/gcgrid/gcdata/ExtData/CHEM_INPUTS/UCX_201403/NoonTime/Grid4x5/InitCFC_JN2O_11.dat
UCX (SFCMR_READ): Opening /shared/ucl/depts/uptrop/uclgcfs/gcgrid/gcdata/ExtData/CHEM_INPUTS/UCX_201403/NoonTime/Grid4x5/InitCFC_O_12.dat
UCX (SFCMR_READ): Opening /shared/ucl/depts/uptrop/uclgcfs/gcgrid/gcdata/ExtData/CHEM_INPUTS/UCX_201403/NoonTime/Grid4x5/InitCFC_O1D_12.dat
UCX (SFCMR_READ): Opening /shared/ucl/depts/uptrop/uclgcfs/gcgrid/gcdata/ExtData/CHEM_INPUTS/UCX_201403/NoonTime/Grid4x5/InitCFC_JNO_12.dat
UCX (SFCMR_READ): Opening /shared/ucl/depts/uptrop/uclgcfs/gcgrid/gcdata/ExtData/CHEM_INPUTS/UCX_201403/NoonTime/Grid4x5/InitCFC_JNO2_12.dat
UCX (SFCMR_READ): Opening /shared/ucl/depts/uptrop/uclgcfs/gcgrid/gcdata/ExtData/CHEM_INPUTS/UCX_201403/NoonTime/Grid4x5/InitCFC_JNO3_12.dat
UCX (SFCMR_READ): Opening /shared/ucl/depts/uptrop/uclgcfs/gcgrid/gcdata/ExtData/CHEM_INPUTS/UCX_201403/NoonTime/Grid4x5/InitCFC_JN2O_12.dat

********************************************
* B e g i n   T i m e   S t e p p i n g !! *
********************************************

---> DATE: 2020/01/01  UTC: 00:00
 HEMCO already called for this timestep. Returning.
 Getting CH4 boundary conditions in GEOS-Chem from :NOAA_GMD_CH4
HEMCO (VOLCANO): Opening /shared/ucl/depts/uptrop/uclgcfs/gcgrid/gcdata/ExtData/HEMCO/VOLCANO/v2021-09/2020/01/so2_volcanic_emissions_Carns.20200101.rc
     - DO_LINEAR_CHEM: Linearized chemistry at 2020/01/01 00:00
     - LINOZ_CHEM3: Doing LINOZ
---> DATE: 2020/01/01  UTC: 00:10
---> DATE: 2020/01/01  UTC: 00:20
     - DO_LINEAR_CHEM: Linearized chemistry at 2020/01/01 00:20
     - LINOZ_CHEM3: Doing LINOZ
---> DATE: 2020/01/01  UTC: 00:30
---> DATE: 2020/01/01  UTC: 00:40
     - DO_LINEAR_CHEM: Linearized chemistry at 2020/01/01 00:40
     - LINOZ_CHEM3: Doing LINOZ
---> DATE: 2020/01/01  UTC: 00:50
---> DATE: 2020/01/01  UTC: 01:00
     - Found all A1     met fields for 2020/01/01 01:30
     - DO_LINEAR_CHEM: Linearized chemistry at 2020/01/01 01:00
     - LINOZ_CHEM3: Doing LINOZ
---> DATE: 2020/01/01  UTC: 01:10
---> DATE: 2020/01/01  UTC: 01:20
     - DO_LINEAR_CHEM: Linearized chemistry at 2020/01/01 01:20
     - LINOZ_CHEM3: Doing LINOZ
---> DATE: 2020/01/01  UTC: 01:30
---> DATE: 2020/01/01  UTC: 01:40
     - DO_LINEAR_CHEM: Linearized chemistry at 2020/01/01 01:40
     - LINOZ_CHEM3: Doing LINOZ
---> DATE: 2020/01/01  UTC: 01:50
---> DATE: 2020/01/01  UTC: 02:00
     - Found all A1     met fields for 2020/01/01 02:30
     - DO_LINEAR_CHEM: Linearized chemistry at 2020/01/01 02:00
     - LINOZ_CHEM3: Doing LINOZ
---> DATE: 2020/01/01  UTC: 02:10
---> DATE: 2020/01/01  UTC: 02:20
     - DO_LINEAR_CHEM: Linearized chemistry at 2020/01/01 02:20
     - LINOZ_CHEM3: Doing LINOZ
---> DATE: 2020/01/01  UTC: 02:30
---> DATE: 2020/01/01  UTC: 02:40
     - DO_LINEAR_CHEM: Linearized chemistry at 2020/01/01 02:40
     - LINOZ_CHEM3: Doing LINOZ
---> DATE: 2020/01/01  UTC: 02:50
---> DATE: 2020/01/01  UTC: 03:00
HEMCO: Opening /shared/ucl/depts/uptrop/uclgcfs/gcgrid/gcdata/ExtData/HEMCO/OFFLINE_LIGHTNING/v2020-03/MERRA2/2020/FLASH_CTH_MERRA2_0.5x0.625_2020_01.nc4
     - Found all A1     met fields for 2020/01/01 03:30
     - Found all A3cld  met fields for 2020/01/01 04:30
     - Found all A3dyn  met fields for 2020/01/01 04:30
     - Found all A3mstC met fields for 2020/01/01 04:30
     - Found all A3mstE met fields for 2020/01/01 04:30
     - Found all I3     met fields for 2020/01/01 06:00
     - DO_LINEAR_CHEM: Linearized chemistry at 2020/01/01 03:00
     - LINOZ_CHEM3: Doing LINOZ
---> DATE: 2020/01/01  UTC: 03:10
---> DATE: 2020/01/01  UTC: 03:20
     - DO_LINEAR_CHEM: Linearized chemistry at 2020/01/01 03:20
     - LINOZ_CHEM3: Doing LINOZ
---> DATE: 2020/01/01  UTC: 03:30
---> DATE: 2020/01/01  UTC: 03:40
     - DO_LINEAR_CHEM: Linearized chemistry at 2020/01/01 03:40
     - LINOZ_CHEM3: Doing LINOZ
---> DATE: 2020/01/01  UTC: 03:50
---> DATE: 2020/01/01  UTC: 04:00
     - Found all A1     met fields for 2020/01/01 04:30
     - DO_LINEAR_CHEM: Linearized chemistry at 2020/01/01 04:00
     - LINOZ_CHEM3: Doing LINOZ
---> DATE: 2020/01/01  UTC: 04:10
---> DATE: 2020/01/01  UTC: 04:20
     - DO_LINEAR_CHEM: Linearized chemistry at 2020/01/01 04:20
     - LINOZ_CHEM3: Doing LINOZ
---> DATE: 2020/01/01  UTC: 04:30
---> DATE: 2020/01/01  UTC: 04:40
     - DO_LINEAR_CHEM: Linearized chemistry at 2020/01/01 04:40
     - LINOZ_CHEM3: Doing LINOZ
---> DATE: 2020/01/01  UTC: 04:50
---> DATE: 2020/01/01  UTC: 05:00
     - Found all A1     met fields for 2020/01/01 05:30
     - DO_LINEAR_CHEM: Linearized chemistry at 2020/01/01 05:00
     - LINOZ_CHEM3: Doing LINOZ
---> DATE: 2020/01/01  UTC: 05:10
---> DATE: 2020/01/01  UTC: 05:20
     - DO_LINEAR_CHEM: Linearized chemistry at 2020/01/01 05:20
     - LINOZ_CHEM3: Doing LINOZ
---> DATE: 2020/01/01  UTC: 05:30
---> DATE: 2020/01/01  UTC: 05:40
     - DO_LINEAR_CHEM: Linearized chemistry at 2020/01/01 05:40
     - LINOZ_CHEM3: Doing LINOZ
---> DATE: 2020/01/01  UTC: 05:50
---> DATE: 2020/01/01  UTC: 06:00
HEMCO: Opening /shared/ucl/depts/uptrop/uclgcfs/gcgrid/gcdata/ExtData/HEMCO/OFFLINE_LIGHTNING/v2020-03/MERRA2/2020/FLASH_CTH_MERRA2_0.5x0.625_2020_01.nc4
     - Found all A1     met fields for 2020/01/01 06:30
     - Found all A3cld  met fields for 2020/01/01 07:30
     - Found all A3dyn  met fields for 2020/01/01 07:30
     - Found all A3mstC met fields for 2020/01/01 07:30
     - Found all A3mstE met fields for 2020/01/01 07:30
     - Found all I3     met fields for 2020/01/01 09:00
     - DO_LINEAR_CHEM: Linearized chemistry at 2020/01/01 06:00
     - LINOZ_CHEM3: Doing LINOZ
---> DATE: 2020/01/01  UTC: 06:10
---> DATE: 2020/01/01  UTC: 06:20
     - DO_LINEAR_CHEM: Linearized chemistry at 2020/01/01 06:20
     - LINOZ_CHEM3: Doing LINOZ
---> DATE: 2020/01/01  UTC: 06:30
---> DATE: 2020/01/01  UTC: 06:40
     - DO_LINEAR_CHEM: Linearized chemistry at 2020/01/01 06:40
     - LINOZ_CHEM3: Doing LINOZ
---> DATE: 2020/01/01  UTC: 06:50
---> DATE: 2020/01/01  UTC: 07:00
     - Found all A1     met fields for 2020/01/01 07:30
     - DO_LINEAR_CHEM: Linearized chemistry at 2020/01/01 07:00
     - LINOZ_CHEM3: Doing LINOZ
---> DATE: 2020/01/01  UTC: 07:10
---> DATE: 2020/01/01  UTC: 07:20
     - DO_LINEAR_CHEM: Linearized chemistry at 2020/01/01 07:20
     - LINOZ_CHEM3: Doing LINOZ
---> DATE: 2020/01/01  UTC: 07:30
---> DATE: 2020/01/01  UTC: 07:40
     - DO_LINEAR_CHEM: Linearized chemistry at 2020/01/01 07:40
     - LINOZ_CHEM3: Doing LINOZ
---> DATE: 2020/01/01  UTC: 07:50
---> DATE: 2020/01/01  UTC: 08:00
     - Found all A1     met fields for 2020/01/01 08:30
     - DO_LINEAR_CHEM: Linearized chemistry at 2020/01/01 08:00
     - LINOZ_CHEM3: Doing LINOZ
---> DATE: 2020/01/01  UTC: 08:10
---> DATE: 2020/01/01  UTC: 08:20
     - DO_LINEAR_CHEM: Linearized chemistry at 2020/01/01 08:20
     - LINOZ_CHEM3: Doing LINOZ
---> DATE: 2020/01/01  UTC: 08:30
---> DATE: 2020/01/01  UTC: 08:40
     - DO_LINEAR_CHEM: Linearized chemistry at 2020/01/01 08:40
     - LINOZ_CHEM3: Doing LINOZ
---> DATE: 2020/01/01  UTC: 08:50
---> DATE: 2020/01/01  UTC: 09:00
HEMCO: Opening /shared/ucl/depts/uptrop/uclgcfs/gcgrid/gcdata/ExtData/HEMCO/OFFLINE_LIGHTNING/v2020-03/MERRA2/2020/FLASH_CTH_MERRA2_0.5x0.625_2020_01.nc4
     - Found all A1     met fields for 2020/01/01 09:30
     - Found all A3cld  met fields for 2020/01/01 10:30
     - Found all A3dyn  met fields for 2020/01/01 10:30
     - Found all A3mstC met fields for 2020/01/01 10:30
     - Found all A3mstE met fields for 2020/01/01 10:30
     - Found all I3     met fields for 2020/01/01 12:00
     - DO_LINEAR_CHEM: Linearized chemistry at 2020/01/01 09:00
     - LINOZ_CHEM3: Doing LINOZ
---> DATE: 2020/01/01  UTC: 09:10
---> DATE: 2020/01/01  UTC: 09:20
     - DO_LINEAR_CHEM: Linearized chemistry at 2020/01/01 09:20
     - LINOZ_CHEM3: Doing LINOZ
---> DATE: 2020/01/01  UTC: 09:30
---> DATE: 2020/01/01  UTC: 09:40
     - DO_LINEAR_CHEM: Linearized chemistry at 2020/01/01 09:40
     - LINOZ_CHEM3: Doing LINOZ
---> DATE: 2020/01/01  UTC: 09:50
---> DATE: 2020/01/01  UTC: 10:00
     - Found all A1     met fields for 2020/01/01 10:30
     - DO_LINEAR_CHEM: Linearized chemistry at 2020/01/01 10:00
     - LINOZ_CHEM3: Doing LINOZ
---> DATE: 2020/01/01  UTC: 10:10
---> DATE: 2020/01/01  UTC: 10:20
     - DO_LINEAR_CHEM: Linearized chemistry at 2020/01/01 10:20
     - LINOZ_CHEM3: Doing LINOZ
---> DATE: 2020/01/01  UTC: 10:30
---> DATE: 2020/01/01  UTC: 10:40
     - DO_LINEAR_CHEM: Linearized chemistry at 2020/01/01 10:40
     - LINOZ_CHEM3: Doing LINOZ
---> DATE: 2020/01/01  UTC: 10:50
---> DATE: 2020/01/01  UTC: 11:00
     - Found all A1     met fields for 2020/01/01 11:30
     - DO_LINEAR_CHEM: Linearized chemistry at 2020/01/01 11:00
     - LINOZ_CHEM3: Doing LINOZ
---> DATE: 2020/01/01  UTC: 11:10
---> DATE: 2020/01/01  UTC: 11:20
     - DO_LINEAR_CHEM: Linearized chemistry at 2020/01/01 11:20
     - LINOZ_CHEM3: Doing LINOZ
---> DATE: 2020/01/01  UTC: 11:30
---> DATE: 2020/01/01  UTC: 11:40
     - DO_LINEAR_CHEM: Linearized chemistry at 2020/01/01 11:40
     - LINOZ_CHEM3: Doing LINOZ
---> DATE: 2020/01/01  UTC: 11:50
---> DATE: 2020/01/01  UTC: 12:00
HEMCO: Opening /shared/ucl/depts/uptrop/uclgcfs/gcgrid/gcdata/ExtData/HEMCO/OFFLINE_LIGHTNING/v2020-03/MERRA2/2020/FLASH_CTH_MERRA2_0.5x0.625_2020_01.nc4
     - Found all A1     met fields for 2020/01/01 12:30
     - Found all A3cld  met fields for 2020/01/01 13:30
     - Found all A3dyn  met fields for 2020/01/01 13:30
     - Found all A3mstC met fields for 2020/01/01 13:30
     - Found all A3mstE met fields for 2020/01/01 13:30
     - Found all I3     met fields for 2020/01/01 15:00
     - DO_LINEAR_CHEM: Linearized chemistry at 2020/01/01 12:00
     - LINOZ_CHEM3: Doing LINOZ
---> DATE: 2020/01/01  UTC: 12:10
---> DATE: 2020/01/01  UTC: 12:20
     - DO_LINEAR_CHEM: Linearized chemistry at 2020/01/01 12:20
     - LINOZ_CHEM3: Doing LINOZ
---> DATE: 2020/01/01  UTC: 12:30
---> DATE: 2020/01/01  UTC: 12:40
     - DO_LINEAR_CHEM: Linearized chemistry at 2020/01/01 12:40
     - LINOZ_CHEM3: Doing LINOZ
---> DATE: 2020/01/01  UTC: 12:50
---> DATE: 2020/01/01  UTC: 13:00
     - Found all A1     met fields for 2020/01/01 13:30
     - DO_LINEAR_CHEM: Linearized chemistry at 2020/01/01 13:00
     - LINOZ_CHEM3: Doing LINOZ
---> DATE: 2020/01/01  UTC: 13:10
---> DATE: 2020/01/01  UTC: 13:20
     - DO_LINEAR_CHEM: Linearized chemistry at 2020/01/01 13:20
     - LINOZ_CHEM3: Doing LINOZ
---> DATE: 2020/01/01  UTC: 13:30
---> DATE: 2020/01/01  UTC: 13:40
     - DO_LINEAR_CHEM: Linearized chemistry at 2020/01/01 13:40
     - LINOZ_CHEM3: Doing LINOZ
---> DATE: 2020/01/01  UTC: 13:50
---> DATE: 2020/01/01  UTC: 14:00
     - Found all A1     met fields for 2020/01/01 14:30
     - DO_LINEAR_CHEM: Linearized chemistry at 2020/01/01 14:00
     - LINOZ_CHEM3: Doing LINOZ
---> DATE: 2020/01/01  UTC: 14:10
---> DATE: 2020/01/01  UTC: 14:20
     - DO_LINEAR_CHEM: Linearized chemistry at 2020/01/01 14:20
     - LINOZ_CHEM3: Doing LINOZ
---> DATE: 2020/01/01  UTC: 14:30
---> DATE: 2020/01/01  UTC: 14:40
     - DO_LINEAR_CHEM: Linearized chemistry at 2020/01/01 14:40
     - LINOZ_CHEM3: Doing LINOZ
---> DATE: 2020/01/01  UTC: 14:50
---> DATE: 2020/01/01  UTC: 15:00
HEMCO: Opening /shared/ucl/depts/uptrop/uclgcfs/gcgrid/gcdata/ExtData/HEMCO/OFFLINE_LIGHTNING/v2020-03/MERRA2/2020/FLASH_CTH_MERRA2_0.5x0.625_2020_01.nc4
     - Found all A1     met fields for 2020/01/01 15:30
     - Found all A3cld  met fields for 2020/01/01 16:30
     - Found all A3dyn  met fields for 2020/01/01 16:30
     - Found all A3mstC met fields for 2020/01/01 16:30
     - Found all A3mstE met fields for 2020/01/01 16:30
     - Found all I3     met fields for 2020/01/01 18:00
     - DO_LINEAR_CHEM: Linearized chemistry at 2020/01/01 15:00
     - LINOZ_CHEM3: Doing LINOZ
---> DATE: 2020/01/01  UTC: 15:10
---> DATE: 2020/01/01  UTC: 15:20
     - DO_LINEAR_CHEM: Linearized chemistry at 2020/01/01 15:20
     - LINOZ_CHEM3: Doing LINOZ
---> DATE: 2020/01/01  UTC: 15:30
---> DATE: 2020/01/01  UTC: 15:40
     - DO_LINEAR_CHEM: Linearized chemistry at 2020/01/01 15:40
     - LINOZ_CHEM3: Doing LINOZ
---> DATE: 2020/01/01  UTC: 15:50
---> DATE: 2020/01/01  UTC: 16:00
     - Found all A1     met fields for 2020/01/01 16:30
     - DO_LINEAR_CHEM: Linearized chemistry at 2020/01/01 16:00
     - LINOZ_CHEM3: Doing LINOZ
---> DATE: 2020/01/01  UTC: 16:10
---> DATE: 2020/01/01  UTC: 16:20
     - DO_LINEAR_CHEM: Linearized chemistry at 2020/01/01 16:20
     - LINOZ_CHEM3: Doing LINOZ
---> DATE: 2020/01/01  UTC: 16:30
---> DATE: 2020/01/01  UTC: 16:40
     - DO_LINEAR_CHEM: Linearized chemistry at 2020/01/01 16:40
     - LINOZ_CHEM3: Doing LINOZ
---> DATE: 2020/01/01  UTC: 16:50
---> DATE: 2020/01/01  UTC: 17:00
     - Found all A1     met fields for 2020/01/01 17:30
     - DO_LINEAR_CHEM: Linearized chemistry at 2020/01/01 17:00
     - LINOZ_CHEM3: Doing LINOZ
---> DATE: 2020/01/01  UTC: 17:10
---> DATE: 2020/01/01  UTC: 17:20
     - DO_LINEAR_CHEM: Linearized chemistry at 2020/01/01 17:20
     - LINOZ_CHEM3: Doing LINOZ
---> DATE: 2020/01/01  UTC: 17:30
---> DATE: 2020/01/01  UTC: 17:40
     - DO_LINEAR_CHEM: Linearized chemistry at 2020/01/01 17:40
     - LINOZ_CHEM3: Doing LINOZ
---> DATE: 2020/01/01  UTC: 17:50
---> DATE: 2020/01/01  UTC: 18:00
HEMCO: Opening /shared/ucl/depts/uptrop/uclgcfs/gcgrid/gcdata/ExtData/HEMCO/OFFLINE_LIGHTNING/v2020-03/MERRA2/2020/FLASH_CTH_MERRA2_0.5x0.625_2020_01.nc4
     - Found all A1     met fields for 2020/01/01 18:30
     - Found all A3cld  met fields for 2020/01/01 19:30
     - Found all A3dyn  met fields for 2020/01/01 19:30
     - Found all A3mstC met fields for 2020/01/01 19:30
     - Found all A3mstE met fields for 2020/01/01 19:30
     - Found all I3     met fields for 2020/01/01 21:00
     - DO_LINEAR_CHEM: Linearized chemistry at 2020/01/01 18:00
     - LINOZ_CHEM3: Doing LINOZ
---> DATE: 2020/01/01  UTC: 18:10
---> DATE: 2020/01/01  UTC: 18:20
     - DO_LINEAR_CHEM: Linearized chemistry at 2020/01/01 18:20
     - LINOZ_CHEM3: Doing LINOZ
---> DATE: 2020/01/01  UTC: 18:30
---> DATE: 2020/01/01  UTC: 18:40
     - DO_LINEAR_CHEM: Linearized chemistry at 2020/01/01 18:40
     - LINOZ_CHEM3: Doing LINOZ
---> DATE: 2020/01/01  UTC: 18:50
---> DATE: 2020/01/01  UTC: 19:00
     - Found all A1     met fields for 2020/01/01 19:30
     - DO_LINEAR_CHEM: Linearized chemistry at 2020/01/01 19:00
     - LINOZ_CHEM3: Doing LINOZ
---> DATE: 2020/01/01  UTC: 19:10
---> DATE: 2020/01/01  UTC: 19:20
     - DO_LINEAR_CHEM: Linearized chemistry at 2020/01/01 19:20
     - LINOZ_CHEM3: Doing LINOZ
---> DATE: 2020/01/01  UTC: 19:30
---> DATE: 2020/01/01  UTC: 19:40
     - DO_LINEAR_CHEM: Linearized chemistry at 2020/01/01 19:40
     - LINOZ_CHEM3: Doing LINOZ
---> DATE: 2020/01/01  UTC: 19:50
---> DATE: 2020/01/01  UTC: 20:00
     - Found all A1     met fields for 2020/01/01 20:30
     - DO_LINEAR_CHEM: Linearized chemistry at 2020/01/01 20:00
     - LINOZ_CHEM3: Doing LINOZ
---> DATE: 2020/01/01  UTC: 20:10
---> DATE: 2020/01/01  UTC: 20:20
     - DO_LINEAR_CHEM: Linearized chemistry at 2020/01/01 20:20
     - LINOZ_CHEM3: Doing LINOZ
---> DATE: 2020/01/01  UTC: 20:30
---> DATE: 2020/01/01  UTC: 20:40
     - DO_LINEAR_CHEM: Linearized chemistry at 2020/01/01 20:40
     - LINOZ_CHEM3: Doing LINOZ
---> DATE: 2020/01/01  UTC: 20:50
---> DATE: 2020/01/01  UTC: 21:00
HEMCO: Opening /shared/ucl/depts/uptrop/uclgcfs/gcgrid/gcdata/ExtData/HEMCO/OFFLINE_LIGHTNING/v2020-03/MERRA2/2020/FLASH_CTH_MERRA2_0.5x0.625_2020_01.nc4
     - Found all A1     met fields for 2020/01/01 21:30
     - Found all A3cld  met fields for 2020/01/01 22:30
     - Found all A3dyn  met fields for 2020/01/01 22:30
     - Found all A3mstC met fields for 2020/01/01 22:30
     - Found all A3mstE met fields for 2020/01/01 22:30
     - Found all I3     met fields for 2020/01/02 00:00
     - DO_LINEAR_CHEM: Linearized chemistry at 2020/01/01 21:00
     - LINOZ_CHEM3: Doing LINOZ
---> DATE: 2020/01/01  UTC: 21:10
---> DATE: 2020/01/01  UTC: 21:20
     - DO_LINEAR_CHEM: Linearized chemistry at 2020/01/01 21:20
     - LINOZ_CHEM3: Doing LINOZ
---> DATE: 2020/01/01  UTC: 21:30
---> DATE: 2020/01/01  UTC: 21:40
     - DO_LINEAR_CHEM: Linearized chemistry at 2020/01/01 21:40
     - LINOZ_CHEM3: Doing LINOZ
---> DATE: 2020/01/01  UTC: 21:50
---> DATE: 2020/01/01  UTC: 22:00
     - Found all A1     met fields for 2020/01/01 22:30
     - DO_LINEAR_CHEM: Linearized chemistry at 2020/01/01 22:00
     - LINOZ_CHEM3: Doing LINOZ
---> DATE: 2020/01/01  UTC: 22:10
---> DATE: 2020/01/01  UTC: 22:20
     - DO_LINEAR_CHEM: Linearized chemistry at 2020/01/01 22:20
     - LINOZ_CHEM3: Doing LINOZ
---> DATE: 2020/01/01  UTC: 22:30
---> DATE: 2020/01/01  UTC: 22:40
     - DO_LINEAR_CHEM: Linearized chemistry at 2020/01/01 22:40
     - LINOZ_CHEM3: Doing LINOZ
---> DATE: 2020/01/01  UTC: 22:50
---> DATE: 2020/01/01  UTC: 23:00
     - Found all A1     met fields for 2020/01/01 23:30
     - DO_LINEAR_CHEM: Linearized chemistry at 2020/01/01 23:00
     - LINOZ_CHEM3: Doing LINOZ
---> DATE: 2020/01/01  UTC: 23:10
---> DATE: 2020/01/01  UTC: 23:20
     - DO_LINEAR_CHEM: Linearized chemistry at 2020/01/01 23:20
     - LINOZ_CHEM3: Doing LINOZ
---> DATE: 2020/01/01  UTC: 23:30
---> DATE: 2020/01/01  UTC: 23:40
     - DO_LINEAR_CHEM: Linearized chemistry at 2020/01/01 23:40
     - LINOZ_CHEM3: Doing LINOZ
---> DATE: 2020/01/01  UTC: 23:50
     - Creating file for ConcAfterChem; reference = 20200101 000000
        with filename = OutputDir/norrtmg_normalchem/GEOSChem.ConcAfterChem.20200101_0000z.nc4
     - Creating file for Aerosols; reference = 20200101 000000
        with filename = OutputDir/norrtmg_normalchem/GEOSChem.Aerosols.20200101_0000z.nc4
     - Creating file for SpeciesConc; reference = 20200101 000000
        with filename = OutputDir/norrtmg_normalchem/GEOSChem.SpeciesConc.20200101_0000z.nc4
     - Creating file for Metrics; reference = 20200101 000000
        with filename = OutputDir/norrtmg_normalchem/GEOSChem.Metrics.20200101_0000z.nc4
     - Creating file for Restart; reference = 20200102 000000
        with filename = ./Restarts/norrtmg_normalchem/GEOSChem.Restart.20200102_0000z.nc4
---> DATE: 2020/01/02  UTC: 00:00
     - CLEANUP: deallocating arrays now...

%%%%%%%%%%%%%%%%%%%%%%%%%%%%%%%%%%%%%%%%%%%%%%%%%%%%%%%%%%%%%%%%%
%%%%%     To compute the OH metrics, execute the Python     %%%%%
%%%%%       script "metrics.py" in this run directory.      %%%%%
%%%%%%%%%%%%%%%%%%%%%%%%%%%%%%%%%%%%%%%%%%%%%%%%%%%%%%%%%%%%%%%%%

===> SIMULATION END TIME: 2024/02/22 12:43 <===


**************   E N D   O F   G E O S -- C H E M   **************
