*************   S T A R T I N G   G E O S - C H E M   *************

===> Mode of operation         : GEOS-Chem "Classic"
===> GEOS-Chem version         : 14.3.0
===> Compiler                  : GNU Fortran compiler (aka gfortran)
===> Flexible precision set to : 8-byte real (aka REAL*8)
===> Parallelization w/ OpenMP : ON
===> Binary punch diagnostics  : OFF
===> netCDF diagnostics        : ON
===> netCDF file compression   : SUPPORTED
===> Luo et al (2019) wetdep?  : OFF

===> SIMULATION START TIME: 2024/02/19 13:08 <===

===============================================================================
G E O S - C H E M   U S E R   I N P U T

READ_INPUT_FILE: Opening ./geoschem_config.yml

SIMULATION SETTINGS
-------------------
Simulation name             : fullchem
CHEM_INPUTS directory       : /shared/ucl/depts/uptrop/uclgcfs/gcgrid/gcdata/ExtData/CHEM_INPUTS/
Species database file       : ./species_database.yml
Turn on verbose output      :     F
Verbose output printed on   : root core only
Start time of run           : 20200101 000000
End time of run             : 20220101 000000
Data Directory              : /shared/ucl/depts/uptrop/uclgcfs/gcgrid/gcdata/ExtData/
Meteorology field           : MERRA2
Turn on GEOS-Chem timers    :     F

GRID SETTINGS
------------
Grid resolution             : 4.0x5.0
Min/max longitude           :  -180.0000   180.0000
Min/max latitude            :   -90.0000    90.0000
X grid dimension            :    72
Y grid dimension            :    46
Z grid dimension            :    47
Use half-sized polar boxes? :     T
Center on Intl Date Line?   :     T
Is this a nested-grid sim?  :     F
 --> Buffer zone (N S E W ) :     0    0    0    0

TIMESTEP SETTINGS
-----------------
Transport/Convection [sec]  :   600
Chemistry/Emissions  [sec]  :  1200
RRTMG rad transfer   [sec]  : 10800

TRANSPORT SETTINGS
------------------
Turn on transport?          :     T
Let TPCORE Fill negatives?  :     T
IORD, JORD, KORD for TPCORE?:     3    3    7

CONVECTION SETTINGS
-------------------
Turn on cloud convection?   :     T

PBL MIXING SETTINGS
-------------------
Turn on PBL mixing?         :     T
Turn on non-local PBL?      :     T

AEROSOL SETTINGS
----------------
Online SULFATE AEROSOLS?    :     T
Metal catalyzed SO2 ox.?    :     T
Online CARBON AEROSOLS?     :     T
Brown Carbon Aerosol?       :     F
BC Absorption Enhancement?  :     T
Hydrophilic BC AE factor    :     1.50
Hydrophobic BC AE factor    :     1.00
Online COMPLEX SOA?         :     F
Semivolatile POA?           :     F
Online DUST AEROSOLS?       :     T
Acid uptake on dust?        :     F
Online SEA SALT AEROSOLS?   :     T
Accum  SEA SALT radii [um]  :     0.01 -     0.50
Coarse SEA SALT radii [um]  :     0.50 -     8.00
MARINE ORGANIC AEROSOLS?    :     F
Settle strat. aerosols?     :     T
Online SOLID PSC aerosols?  :     T
Allow hom. NAT nucleation?  :     F
NAT supercooling requirement:     3.00K
Ice supersaturation req.    :    20.00K
Perform PSC het. chemistry? :     T
Use strat. aerosol OD?      :     T

DRY DEPOSITION SETTINGS
-----------------------
Turn on dry deposition?     :     T
Dry dep over full PBL?      :     F
Turn on CO2 effect?         :     F
CO2 level                   :   600.00
CO2 reference level         :   380.00
RIX scaling factor          :     1.00

WET DEPOSITION SETTINGS
-----------------------
Turn on wet deposition?     :     T

CHEMISTRY SETTINGS
------------------
Turn on chemistry?          :     T
Use linear. mesospheric chem:     T
 => Use Linoz for O3?       :     T
Online strat. H2O?          :     T
Use robust strat H2O BC?    :     T
GAMMA HO2                   : 0.20
Use auto-reduce solver?     :     F
Use target species threshold:     T
OH tuning factor:             5.0E-05
NO2 tuning factor:            1.0E-04
Keep halogen spec. active?  :     F
Use append in auto-reduce?  :     F

PHOTOLYSIS SETTINGS
-------------------
Turn on photolysis?         :     T
FAST-JX input directory     : /shared/ucl/depts/uptrop/uclgcfs/gcgrid/gcdata/ExtData/CHEM_INPUTS/FAST_JX/v2021-10/
Cloud-J input directory     : /home/ucfacb0/Scratch/CLOUD_J/
Use online ozone?           :     T
Use ozone from met?         :     T
Use TOMS/SBUV ozone?        :     F
Photolyse nitrate aerosol?  :     T
JNITs scaling of JHNO3      :  100.000
JNIT scaling of JHNO3       :  100.000
JNIT(s) channel A (HONO)    :   66.667
JNIT(s) channel B (NO2)     :   33.333

NOTE ABOUT OVERHEAD O3 FOR FAST-JX:
 Online O3 from GEOS-Chem will be used
 to weight the O3 column within the
 chemistry grid and O3 from met or TOMS
 will be used outside the chemistry grid.

RRTMG SETTINGS
--------------
AOD output wavelength (nm)  :   550.0
Turn on radiation?          :     F
Consider longwave?          :     F
Consider shortwave?         :     F
Clear-sky flux?             :     F
All-sky flux?               :     F
CO2 VMR in ppmv             :     T
Fixed dyn. heat. assumption?:     F
 --> Seasonal evolution?    :     F
 --> Extend to TOA?         :     F
 --> Read in dyn. heating?  :     F

OBSPACK SETTINGS
----------------
Turn on ObsPack diagnostic? :     F
Suppress logfile output?    :     F
ObsPack input file          : ./obspack_co2_1_OCO2MIP_2018-11-28.YYYYMMDD.nc
ObsPack output file         : ./OutputDir/GEOSChem.ObsPack.YYYYMMDD_hhmmz.nc4

PLANEFLIGHT DIAGNOSTIC SETTINGS
-------------------------------
Turn on planeflight diag?   :     F
Flight track input file     : Planeflight.dat.YYYYMMDD
Output file name            : plane.log.YYYYMMDD

TIMESTEPS SETTINGS
------------------
Chemistry  Timestep [sec]   :   1200
Convection Timestep [sec]   :    600
Dynamics   Timestep [sec]   :    600
Emission   Timestep [sec]   :   1200
Unit Conv  Timestep [sec]   :    600
Diagnostic Timestep [sec]   :   1200
Radiation  Timestep [sec]   :  10800

%%%%%%%%%%%%%%% GLOBAL GRID %%%%%%%%%%%%%%%

Grid box longitude centers [degrees]: 
-180.00000 -175.00000 -170.00000 -165.00000 -160.00000 -155.00000 -150.00000
-145.00000 -140.00000 -135.00000 -130.00000 -125.00000 -120.00000 -115.00000
-110.00000 -105.00000 -100.00000  -95.00000  -90.00000  -85.00000  -80.00000
 -75.00000  -70.00000  -65.00000  -60.00000  -55.00000  -50.00000  -45.00000
 -40.00000  -35.00000  -30.00000  -25.00000  -20.00000  -15.00000  -10.00000
  -5.00000    0.00000    5.00000   10.00000   15.00000   20.00000   25.00000
  30.00000   35.00000   40.00000   45.00000   50.00000   55.00000   60.00000
  65.00000   70.00000   75.00000   80.00000   85.00000   90.00000   95.00000
 100.00000  105.00000  110.00000  115.00000  120.00000  125.00000  130.00000
 135.00000  140.00000  145.00000  150.00000  155.00000  160.00000  165.00000
 170.00000  175.00000

Grid box latitude centers [degrees]: 
 -89.00000  -86.00000  -82.00000  -78.00000  -74.00000  -70.00000  -66.00000
 -62.00000  -58.00000  -54.00000  -50.00000  -46.00000  -42.00000  -38.00000
 -34.00000  -30.00000  -26.00000  -22.00000  -18.00000  -14.00000  -10.00000
  -6.00000   -2.00000    2.00000    6.00000   10.00000   14.00000   18.00000
  22.00000   26.00000   30.00000   34.00000   38.00000   42.00000   46.00000
  50.00000   54.00000   58.00000   62.00000   66.00000   70.00000   74.00000
  78.00000   82.00000   86.00000   89.00000

%%%%%%%%%%%% USER-DEFINED GRID %%%%%%%%%%%%

  XMinOffset :            0
  XMaxOffset :           71
  YMinOffset :            0
  YMaxOffset :           45


Grid box longitude centers [degrees]: 
-180.00000 -175.00000 -170.00000 -165.00000 -160.00000 -155.00000 -150.00000
-145.00000 -140.00000 -135.00000 -130.00000 -125.00000 -120.00000 -115.00000
-110.00000 -105.00000 -100.00000  -95.00000  -90.00000  -85.00000  -80.00000
 -75.00000  -70.00000  -65.00000  -60.00000  -55.00000  -50.00000  -45.00000
 -40.00000  -35.00000  -30.00000  -25.00000  -20.00000  -15.00000  -10.00000
  -5.00000    0.00000    5.00000   10.00000   15.00000   20.00000   25.00000
  30.00000   35.00000   40.00000   45.00000   50.00000   55.00000   60.00000
  65.00000   70.00000   75.00000   80.00000   85.00000   90.00000   95.00000
 100.00000  105.00000  110.00000  115.00000  120.00000  125.00000  130.00000
 135.00000  140.00000  145.00000  150.00000  155.00000  160.00000  165.00000
 170.00000  175.00000

Grid box longitude edges [degrees]: 
-182.50000 -177.50000 -172.50000 -167.50000 -162.50000 -157.50000 -152.50000
-147.50000 -142.50000 -137.50000 -132.50000 -127.50000 -122.50000 -117.50000
-112.50000 -107.50000 -102.50000  -97.50000  -92.50000  -87.50000  -82.50000
 -77.50000  -72.50000  -67.50000  -62.50000  -57.50000  -52.50000  -47.50000
 -42.50000  -37.50000  -32.50000  -27.50000  -22.50000  -17.50000  -12.50000
  -7.50000   -2.50000    2.50000    7.50000   12.50000   17.50000   22.50000
  27.50000   32.50000   37.50000   42.50000   47.50000   52.50000   57.50000
  62.50000   67.50000   72.50000   77.50000   82.50000   87.50000   92.50000
  97.50000  102.50000  107.50000  112.50000  117.50000  122.50000  127.50000
 132.50000  137.50000  142.50000  147.50000  152.50000  157.50000  162.50000
 167.50000  172.50000  177.50000

Grid box latitude centers [degrees]: 
 -89.00000  -86.00000  -82.00000  -78.00000  -74.00000  -70.00000  -66.00000
 -62.00000  -58.00000  -54.00000  -50.00000  -46.00000  -42.00000  -38.00000
 -34.00000  -30.00000  -26.00000  -22.00000  -18.00000  -14.00000  -10.00000
  -6.00000   -2.00000    2.00000    6.00000   10.00000   14.00000   18.00000
  22.00000   26.00000   30.00000   34.00000   38.00000   42.00000   46.00000
  50.00000   54.00000   58.00000   62.00000   66.00000   70.00000   74.00000
  78.00000   82.00000   86.00000   89.00000

Grid box latitude edges [degrees]: 
 -90.00000  -88.00000  -84.00000  -80.00000  -76.00000  -72.00000  -68.00000
 -64.00000  -60.00000  -56.00000  -52.00000  -48.00000  -44.00000  -40.00000
 -36.00000  -32.00000  -28.00000  -24.00000  -20.00000  -16.00000  -12.00000
  -8.00000   -4.00000    0.00000    4.00000    8.00000   12.00000   16.00000
  20.00000   24.00000   28.00000   32.00000   36.00000   40.00000   44.00000
  48.00000   52.00000   56.00000   60.00000   64.00000   68.00000   72.00000
  76.00000   80.00000   84.00000   88.00000   90.00000

SIN( grid box latitude edges )
  -1.00000   -0.99939   -0.99452   -0.98481   -0.97030   -0.95106   -0.92718
  -0.89879   -0.86603   -0.82904   -0.78801   -0.74314   -0.69466   -0.64279
  -0.58779   -0.52992   -0.46947   -0.40674   -0.34202   -0.27564   -0.20791
  -0.13917   -0.06976    0.00000    0.06976    0.13917    0.20791    0.27564
   0.34202    0.40674    0.46947    0.52992    0.58779    0.64279    0.69466
   0.74314    0.78801    0.82904    0.86603    0.89879    0.92718    0.95106
   0.97030    0.98481    0.99452    0.99939    1.00000
===============================================================================
SPECIES NAMES AND INDICES

Name               ModelId  DryDepId  WetDepId  PhotolId HygGrthId  KppSpcId
-------------------------------------------------------------------------------
ACET                     1         1         -         1         -       221
ACTA                     2         2         1         -         -       219
AERI                     3         3         2         -         -         4
AL2O3                    4         4         3         -         -         -
ALD2                     5         5         4         2         -       264
ALK4                     6         -         -         -         -       114
AONITA                   7         6         5         -         -         5
AROMP4                   8         7         6         -         -       159
AROMP5                   9         8         7         -         -       148
ATOOH                   10         9         8         3         -       196
BALD                    11        10         9         4         -       101
BCPI                    12        11        10         -         1         -
BCPO                    13        12        11         -         -         -
BENZ                    14         -         -         -         -        64
BENZP                   15        13        12         5         -       107
Br                      16         -         -         -         -       273
Br2                     17        14        13         6         -       128
BrCl                    18        15        14         7         -       135
BrNO2                   19         -         -         8         -        51
BrNO3                   20        16         -         9         -       176
BrO                     21         -         -        10         -       274
BrSALA                  22        17        15         -         -       283
BrSALC                  23        18        16         -         -       277
BUTDI                   24         -         -         -         -         6
BZCO3H                  25        19        17        11         -        70
BZPAN                   26        20        18         -         -        97
C2H2                    27         -         -         -         -        58
C2H4                    28         -         -         -         -        76
C2H6                    29         -         -         -         -       161
C3H8                    30         -         -         -         -       124
CCl4                    31         -         -        12         -        52
CFC11                   32         -         -        13         -        53
CFC113                  33         -         -        14         -        55
CFC114                  34         -         -        15         -        56
CFC115                  35         -         -        16         -        57
CFC12                   36         -         -        17         -        54
CH2Br2                  37         -         -        18         -        71
CH2Cl2                  38         -         -        19         -        72
CH2I2                   39         -         -        20         -         1
CH2IBr                  40         -         -        21         -         2
CH2ICl                  41         -         -        22         -         3
CH2O                    42        21        19        23         -       263
CH3Br                   43         -         -        24         -       100
CH3CCl3                 44         -         -        25         -        43
CH3Cl                   45         -         -        26         -       149
CH3I                    46         -         -        27         -        46
CH4                     47         -         -         -         -       190
CHBr3                   48         -         -        28         -        77
CHCl3                   49         -         -        29         -        78
Cl                      50         -         -         -         -       290
Cl2                     51        22         -        30         -       197
Cl2O2                   52         -         -        31         -        75
ClNO2                   53        23         -        32         -       235
ClNO3                   54        24         -        33         -       262
ClO                     55        25         -        34         -       285
ClOO                    56        26         -        35         -       103
CLOCK                   57         -         -         -         -         -
CO                      58         -         -         -         -       267
CSL                     59        27        20         -         -       115
DMS                     60         -         -         -         -        90
DST1                    61        28        21         -         -         -
DST2                    62        29        22         -         -         -
DST3                    63        30        23         -         -         -
DST4                    64        31        24         -         -         -
EOH                     65        32        25         -         -       133
ETHLN                   66        33        26        36         -       208
ETHN                    67        34        27         -         -        68
ETHP                    68        35        28        37         -       120
ETNO3                   69        36         -        38         -        96
ETP                     70        37        29        39         -       110
FURA                    71        38        30         -         -        41
GLYC                    72        39        31        40         -       236
GLYX                    73        40        32        41         -       223
H1211                   74         -         -        42         -        59
H1301                   75         -         -        43         -        47
H2402                   76         -         -        44         -        48
H2O                     77         -         -         -         -       278
H2O2                    78        41        33        45         -       212
HAC                     79        42        34        46         -       250
HBr                     80        43        35         -         -       289
HC5A                    81        44        36        47         -       192
HCFC123                 82         -         -        48         -        81
HCFC141b                83         -         -        49         -        82
HCFC142b                84         -         -        50         -        83
HCFC22                  85         -         -        51         -        84
HCl                     86        45        37         -         -       275
HCOOH                   87        46        38         -         -       211
HI                      88        47        39         -         -        69
HMHP                    89        48        40        52         -        85
HMML                    90        49        41         -         -       105
HMS                     91        50        42         -         -        86
HNO2                    92         -         -        53         -       193
HNO3                    93        51        43        54         -       265
HNO4                    94         -         -        55         -       102
HOBr                    95        52        44        56         -       260
HOCl                    96        53        45        57         -       271
HOI                     97        54        46        58         -       268
HONIT                   98        55        47        59         -       134
HPALD1                  99        56         -        60         -       186
HPALD2                 100        57         -        61         -       188
HPALD3                 101        58         -        62         -       129
HPALD4                 102        59         -        63         -       127
HPETHNL                103        60        48        64         -       172
I                      104         -         -         -         -       269
I2                     105        61        49        65         -       143
I2O2                   106        62        50        66         -        44
I2O3                   107        63        51        67         -        49
I2O4                   108        64        52        68         -        42
IBr                    109        65        53        69         -        73
ICHE                   110        66        54         -         -       174
ICl                    111        67        55        70         -        99
ICN                    112        68        56        71         -       240
ICPDH                  113        69        57        72         -       206
IDC                    114        70         -         -         -       109
IDCHP                  115        71        58        73         -       125
IDHDP                  116        72        59        74         -       141
IDHPE                  117        73        60        75         -       164
IDN                    118        74        61        76         -       243
IEPOXA                 119        75        62         -         -       130
IEPOXB                 120        76        63         -         -       131
IEPOXD                 121        77        64         -         -       116
IHN1                   122        78        65        77         -       220
IHN2                   123        79        66        78         -       139
IHN3                   124        80        67        79         -       140
IHN4                   125        81        68        80         -       214
INDIOL                 126        82        69         -         -         8
INO                    127         -         -        81         -        60
INPB                   128        83        70        82         -       181
INPD                   129        84        71        83         -       151
IO                     130         -         -        84         -       227
IONITA                 131        85        72         -         -        98
IONO                   132        86        73        85         -       203
IONO2                  133        87        74        86         -       270
IPRNO3                 134        88         -        87         -        87
ISALA                  135        89        75         -         -         9
ISALC                  136        90        76         -         -        10
ISOP                   137         -         -         -         -       224
ITCN                   138        91        77        88         -       213
ITHN                   139        92        78        89         -       242
LIMO                   140        93        79         -         -       170
LVOC                   141        94        80         -         -        24
LVOCOA                 142        95        81         -         -        23
MACR                   143        96         -        90         -       251
MACR1OOH               144        97        82        91         -       136
MAP                    145        98        83        92         -        88
MCRDH                  146        99        84         -         -       132
MCRENOL                147       100        85        93         -       163
MCRHN                  148       101        86        94         -       200
MCRHNB                 149       102        87        95         -       175
MCRHP                  150       103        88        96         -       231
MCT                    151       104        89         -         -       142
MEK                    152         -        90        97         -       226
MENO3                  153       105         -        98         -        89
MGLY                   154       106        91        99         -       233
MOH                    155       107        92         -         -       218
MONITA                 156       108        93         -         -        45
MONITS                 157       109        94       100         -       178
MONITU                 158       110        95       101         -       199
MP                     159         -        96       102         -       137
MPAN                   160       111        97       103         -       153
MPN                    161         -        98       104         -        74
MSA                    162       112        99         -         -        28
MTPA                   163       113       100         -         -       154
MTPO                   164       114       101         -         -       155
MVK                    165       115       102       105         -       248
MVKDH                  166       116       103         -         -       117
MVKHC                  167       117       104       106         -       169
MVKHCB                 168       118       105       107         -       185
MVKHP                  169       119       106       108         -       230
MVKN                   170       120       107       109         -       241
MVKPC                  171       121       108       110         -       156
N2O                    172         -         -       111         -        61
N2O5                   173       122         -       112         -       173
NH3                    174       123       109         -         -         -
NH4                    175       124       110         -         -         -
NIT                    176       125       111       113         -        62
NITs                   177       126       112       114         -        63
NO                     178         -         -       115         -       279
NO2                    179       127         -       116         -       291
NO3                    180         -         -       117         -       281
NPHEN                  181       128       113       118         -       210
NPRNO3                 182       129         -       119         -        91
O3                     183       130         -       120         -       282
OClO                   184         -         -       121         -       111
OCPI                   185       131       114         -         2         -
OCPO                   186       132       115         -         -         -
OCS                    187         -         -       122         -        66
OIO                    188         -         -       123         -        92
PAN                    189       133       116       124         -        67
pFe                    190       134       117         -         -         -
PHEN                   191       135       118         -         -       118
PIP                    192         -         -       125         -       119
PP                     193       136       119       126         -       112
PPN                    194       137       120         -         -        50
PROPNN                 195       138       121       127         -       198
PRPE                   196         -       122         -         -       253
PRPN                   197       139       123       128         -       113
PYAC                   198       140       124       129         -       104
R4N2                   199       141       125       130         -       202
R4P                    200       142       126       131         -        93
RA3P                   201       143       127       132         -        94
RB3P                   202       144       128       133         -        95
RCHO                   203         -         -       134         -       259
RIPA                   204       145       129       135         -       157
RIPB                   205       146       130       136         -       162
RIPC                   206       147       131       137         -       171
RIPD                   207       148       132       138         -       165
RP                     208       149       133       139         -       106
SALA                   209       150       134         -         3         -
SALAAL                 210       151       135         -         -       147
SALACL                 211       152       136         -         -       280
SALC                   212       153       137         -         4         -
SALCAL                 213       154       138         -         -       138
SALCCL                 214       155       139         -         -       287
SO2                    215       156       140         -         -       276
SO4                    216       157       141       140         5       122
SO4s                   217       158       142         -         -        29
SOAGX                  218       159       143         -         -        30
SOAIE                  219       160       144         -         -        31
SOAP                   220         -         -         -         -         -
SOAS                   221       161       145         -         -         -
TOLU                   222         -         -         -         -        79
XYLE                   223         -         -         -         -        80
CO2                    224         -         -         -         -         7
LBRO2H                 225         -         -         -         -        11
LBRO2N                 226         -         -         -         -        12
BRO2                   227         -         -         -         -        13
LISOPOH                228         -         -         -         -        14
LISOPNO3               229         -         -         -         -        15
LNRO2H                 230         -         -         -         -        16
LNRO2N                 231         -         -         -         -        17
NRO2                   232         -         -         -         -        18
NAP                    233         -         -         -         -        19
LTRO2H                 234         -         -         -         -        20
LTRO2N                 235         -         -         -         -        21
TRO2                   236         -         -         -         -        22
LXRO2H                 237         -         -         -         -        25
LXRO2N                 238         -         -         -         -        26
XRO2                   239         -         -         -         -        27
PH2SO4                 240         -         -         -         -        32
PSO4AQ                 241         -         -         -         -        33
POx                    242         -         -         -         -        34
LOx                    243         -         -         -         -        35
PCO                    244         -         -         -         -        36
LCO                    245         -         -         -         -        37
PSO4                   246         -         -         -         -        38
LCH4                   247         -         -         -         -        39
PH2O2                  248         -         -         -         -        40
N                      249         -         -         -         -        65
ETO                    250         -         -         -         -       108
HPALD1OO               251         -         -         -         -       121
HPALD2OO               252         -         -         -         -       123
INA                    253         -         -         -         -       126
C4HVP1                 254         -         -         -         -       144
C4HVP2                 255         -         -         -         -       145
IDNOO                  256         -         -         -         -       146
ICNOO                  257         -         -         -         -       150
ISOPNOO2               258         -         -         -         -       152
ROH                    259         -         -         -         -       158
BENZO                  260         -         -         -         -       160
IDHNDOO1               261         -         -         -         -       166
ISOPNOO1               262         -         -         -         -       167
IDHNDOO2               263         -         -         -         -       168
H                      264         -         -         -         -       177
ETOO                   265         -         -         -         -       179
BZCO3                  266         -         -         -         -       180
IHPOO1                 267         -         -         -         -       182
IHPOO2                 268         -         -         -         -       183
AROMRO2                269         -         -         -         -       184
IHPOO3                 270         -         -         -         -       187
IHPNDOO                271         -         -         -         -       189
BENZO2                 272         -         -         -         -       191
ICHOO                  273         -         -         -         -       194
CH3CHOO                274         -         -         -         -       195
PRN1                   275         -         -         -         -       201
MVKOHOO                276         -         -         -         -       204
MCROHOO                277         -         -         -         -       205
MACR1OO                278         -         -         -         -       207
PO2                    279         -         -         -         -       209
OLNN                   280         -         -         -         -       215
OLND                   281         -         -         -         -       216
ETO2                   282         -         -         -         -       217
IHPNBOO                283         -         -         -         -       222
LIMO2                  284         -         -         -         -       225
IEPOXAOO               285         -         -         -         -       228
IEPOXBOO               286         -         -         -         -       229
IDHNBOO                287         -         -         -         -       232
CH2OO                  288         -         -         -         -       234
A3O2                   289         -         -         -         -       237
PIO2                   290         -         -         -         -       238
OTHRO2                 291         -         -         -         -       239
IHOO4                  292         -         -         -         -       244
IHOO1                  293         -         -         -         -       245
INO2D                  294         -         -         -         -       246
INO2B                  295         -         -         -         -       247
MACRNO2                296         -         -         -         -       249
ATO2                   297         -         -         -         -       252
KO2                    298         -         -         -         -       254
RCO3                   299         -         -         -         -       255
R4O2                   300         -         -         -         -       256
R4N1                   301         -         -         -         -       257
B3O2                   302         -         -         -         -       258
MCO3                   303         -         -         -         -       261
MO2                    304         -         -         -         -       266
O1D                    305         -         -         -         -       272
HO2                    306         -         -         -         -       284
OH                     307         -         -         -         -       286
O                      308         -         -         -         -       288
H2                     309         -         -         -         -       292
N2                     310         -         -         -         -       293
O2                     311         -         -       141         -       294
RCOOH                  312         -         -         -         -       295
===============================================================================
===============================================================================
V E R T I C A L   G R I D   S E T U P

INIT_PRESSURE: Vertical coordinates!

Ap 
   0.000000    0.048048    6.593752   13.134800   19.613110   26.092010
  32.570810   38.982010   45.339010   51.696110   58.053210   64.362640
  70.621980   78.834220   89.099920   99.365210  109.181700  118.958600
 128.695900  142.910000  156.260000  169.609000  181.619000  193.097000
 203.259000  212.150000  218.776000  223.898000  224.363000  216.865000
 201.192000  176.930000  150.393000  127.837000  108.663000   92.365720
  78.512310   56.387910   40.175410   28.367810   19.791600    9.292942
   4.076571    1.650790    0.616779    0.211349    0.066000    0.010000

Bp 
   1.000000    0.984952    0.963406    0.941865    0.920387    0.898908
   0.877429    0.856018    0.834661    0.813304    0.791947    0.770637
   0.749378    0.721166    0.685900    0.650635    0.615818    0.581041
   0.546304    0.494590    0.443740    0.392891    0.343381    0.294403
   0.246741    0.200350    0.156224    0.113602    0.063720    0.028010
   0.006960    0.000000    0.000000    0.000000    0.000000    0.000000
   0.000000    0.000000    0.000000    0.000000    0.000000    0.000000
   0.000000    0.000000    0.000000    0.000000    0.000000    0.000000
===============================================================================
READ_DRYDEP_INPUTS: Opening /shared/ucl/depts/uptrop/uclgcfs/gcgrid/gcdata/ExtData/CHEM_INPUTS/Olson_Land_Map_201203/Olson_2001_Drydep_Inputs.nc

LINOZ (LINOZ_READ): Opening /shared/ucl/depts/uptrop/uclgcfs/gcgrid/gcdata/ExtData/CHEM_INPUTS/Linoz_200910/Linoz_March2007.dat
HISTORY (INIT): Opening ./HISTORY.rc

===============================================================================
DEFINED DIAGNOSTIC COLLECTIONS:
===============================================================================
 Collection        Restart
   -> FileName     ./Restarts/GEOSChem.Restart.%y4%m2%d2_%h2%n2z.nc4
   -> Frequency    00000100000000
   -> Duration     00000100000000
   -> Mode         instantaneous
 Collection        Metrics
   -> FileName     OutputDir/GEOSChem.Metrics.%y4%m2%d2_%h2%n2z.nc4
   -> Frequency    End
   -> Duration     End
   -> Mode         time-averaged
 Collection        SpeciesConc
   -> FileName     OutputDir/GEOSChem.SpeciesConc.%y4%m2%d2_%h2%n2z.nc4
   -> Frequency    00000100000000
   -> Duration     00000100000000
   -> Mode         time-averaged
===============================================================================

%%%%%%%%%%%%%%%%%%%%%%%%%%%%%%%%%%%%%%%%%%%%%%%%%%%%%%%%%%%%%%%%%%%%%%%%%%%%%%%
%%%%%               HEMCO: Harmonized Emissions Component                 %%%%%
%%%%%               You are using HEMCO version 3.8.0                     %%%%%
%%%%%%%%%%%%%%%%%%%%%%%%%%%%%%%%%%%%%%%%%%%%%%%%%%%%%%%%%%%%%%%%%%%%%%%%%%%%%%%
  
Reading settings & switches of HEMCO configuration file: HEMCO_Config.rc

HEMCO verbose output is OFF
  
Reading fields of HEMCO configuration file: HEMCO_Config.rc
  
Reading entire HEMCO configuration file: HEMCO_Config.rc.gmao_metfields
Using HEMCO extension: ParaNOx (ship emission plumes)
HEMCO (PARANOX): Opening /shared/ucl/depts/uptrop/uclgcfs/gcgrid/gcdata/ExtData/HEMCO/PARANOX/v2015-02/ship_plume_lut_02ms.nc
HEMCO (PARANOX): Opening /shared/ucl/depts/uptrop/uclgcfs/gcgrid/gcdata/ExtData/HEMCO/PARANOX/v2015-02/ship_plume_lut_06ms.nc
HEMCO (PARANOX): Opening /shared/ucl/depts/uptrop/uclgcfs/gcgrid/gcdata/ExtData/HEMCO/PARANOX/v2015-02/ship_plume_lut_10ms.nc
HEMCO (PARANOX): Opening /shared/ucl/depts/uptrop/uclgcfs/gcgrid/gcdata/ExtData/HEMCO/PARANOX/v2015-02/ship_plume_lut_14ms.nc
HEMCO (PARANOX): Opening /shared/ucl/depts/uptrop/uclgcfs/gcgrid/gcdata/ExtData/HEMCO/PARANOX/v2015-02/ship_plume_lut_18ms.nc
HEMCO (LIGHTNOX): Opening /shared/ucl/depts/uptrop/uclgcfs/gcgrid/gcdata/ExtData/HEMCO/LIGHTNOX/v2014-07/light_dist.ott2010.dat
Using HEMCO extension: LightNOx (lightning NOx emissions
Using HEMCO extension: Volcano (volcanic SO2 emissions)
Using HEMCO extension: SeaFlux (air-sea flux emissions)
Using HEMCO extension: MEGAN (biogenic emissions)
Using HEMCO extension: GFED (biomass burning)
Using HEMCO extension: Inorg_Iodine (HOI and I2 emissions)
HEMCO: Opening /shared/ucl/depts/uptrop/uclgcfs/gcgrid/gcdata/ExtData/HEMCO/XIAO/v2014-09/C3H8_C2H6_ngas.geos.1x1.nc
HEMCO: Opening /shared/ucl/depts/uptrop/uclgcfs/gcgrid/gcdata/ExtData/HEMCO/BIOFUEL/v2019-08/biofuel.geos.2x25.nc
HEMCO: Opening /shared/ucl/depts/uptrop/uclgcfs/gcgrid/gcdata/ExtData/HEMCO/BROMINE/v2015-02/Bromocarb_Liang2010.nc
HEMCO: Opening /shared/ucl/depts/uptrop/uclgcfs/gcgrid/gcdata/ExtData/HEMCO/ACET/v2014-07/ACET_seawater.generic.1x1.nc
HEMCO: Opening /shared/ucl/depts/uptrop/uclgcfs/gcgrid/gcdata/ExtData/HEMCO/MOH/v2019-12/MOH_seawater.low.kgCm3.generic.1x1.nc
HEMCO: Opening /shared/ucl/depts/uptrop/uclgcfs/gcgrid/gcdata/ExtData/HEMCO/MEGAN/v2018-05/MEGAN2.1_EF.geos.025x03125.nc
HEMCO: Opening /shared/ucl/depts/uptrop/uclgcfs/gcgrid/gcdata/ExtData/HEMCO/MEGAN/v2018-05/CLM4_PFT.geos.025x03125.v201805.nc
HEMCO: Opening /shared/ucl/depts/uptrop/uclgcfs/gcgrid/gcdata/ExtData/HEMCO/TIMEZONES/v2015-02/timezones_voronoi_1x1.nc
HEMCO: Opening /shared/ucl/depts/uptrop/uclgcfs/gcgrid/gcdata/ExtData/GEOS_4x5/MERRA2/2015/01/MERRA2.20150101.CN.4x5.nc4
HEMCO: Opening ./Restarts/GEOSChem.Restart.20200101_0000z.nc4
HEMCO: Opening /shared/ucl/depts/uptrop/uclgcfs/gcgrid/gcdata/ExtData/HEMCO/OLSON_MAP/v2019-02/Olson_2001_Land_Type_Masks.025x025.generic.nc
HEMCO: Opening /shared/ucl/depts/uptrop/uclgcfs/gcgrid/gcdata/ExtData/HEMCO/SfcFix/v2019-12/surface_VMR_OCS.2x25.nc
HEMCO: Opening /shared/ucl/depts/uptrop/uclgcfs/gcgrid/gcdata/ExtData/HEMCO/SfcFix/v2019-12/surface_VMR_H2.2x25.nc
HEMCO: Opening /shared/ucl/depts/uptrop/uclgcfs/gcgrid/gcdata/ExtData/HEMCO/OCEAN_O3_DRYDEP/v2020-02/WOA_2013_salinity.nc
HEMCO: Opening /shared/ucl/depts/uptrop/uclgcfs/gcgrid/gcdata/ExtData/HEMCO/AnnualScalar/v2014-07/AnnualScalar.geos.1x1.nc
HEMCO: Opening /shared/ucl/depts/uptrop/uclgcfs/gcgrid/gcdata/ExtData/HEMCO/EDGARv42/v2015-02/NO/EDGAR_hourly_NOxScal.nc
HEMCO: Opening /shared/ucl/depts/uptrop/uclgcfs/gcgrid/gcdata/ExtData/HEMCO/VerticalScaleFactors/v2021-05/gc_layers.nc
HEMCO: Opening /shared/ucl/depts/uptrop/uclgcfs/gcgrid/gcdata/ExtData/HEMCO/MASKS/v2018-09/China_mask.generic.1x1.nc
HEMCO: Opening /shared/ucl/depts/uptrop/uclgcfs/gcgrid/gcdata/ExtData/HEMCO/MASKS/v2019-05/India_mask.generic.1x1.nc
HEMCO: Opening /shared/ucl/depts/uptrop/uclgcfs/gcgrid/gcdata/ExtData/HEMCO/AnnualScalar/v2014-07/AnnualScalar.geos.1x1.nc
HEMCO: Opening /shared/ucl/depts/uptrop/uclgcfs/gcgrid/gcdata/ExtData/HEMCO/CEDS/v2021-06/2019/NO-em-anthro_CMIP_CEDS_2019.nc
HEMCO: Opening /shared/ucl/depts/uptrop/uclgcfs/gcgrid/gcdata/ExtData/HEMCO/CEDS/v2021-06/2019/CO-em-anthro_CMIP_CEDS_2019.nc
HEMCO: Opening /shared/ucl/depts/uptrop/uclgcfs/gcgrid/gcdata/ExtData/HEMCO/CEDS/v2021-06/2019/SO2-em-anthro_CMIP_CEDS_2019.nc
HEMCO: Opening /shared/ucl/depts/uptrop/uclgcfs/gcgrid/gcdata/ExtData/HEMCO/CEDS/v2021-06/2019/NH3-em-anthro_CMIP_CEDS_2019.nc
HEMCO: Opening /shared/ucl/depts/uptrop/uclgcfs/gcgrid/gcdata/ExtData/HEMCO/CEDS/v2021-06/2019/BC-em-anthro_CMIP_CEDS_2019.nc
HEMCO: Opening /shared/ucl/depts/uptrop/uclgcfs/gcgrid/gcdata/ExtData/HEMCO/CEDS/v2021-06/2019/OC-em-anthro_CMIP_CEDS_2019.nc
HEMCO: Opening /shared/ucl/depts/uptrop/uclgcfs/gcgrid/gcdata/ExtData/HEMCO/CEDS/v2021-06/2019/EOH-em-anthro_CMIP_CEDS_2019.nc
HEMCO: Opening /shared/ucl/depts/uptrop/uclgcfs/gcgrid/gcdata/ExtData/HEMCO/CEDS/v2021-06/2019/ALK4_butanes-em-anthro_CMIP_CEDS_2019.nc
HEMCO: Opening /shared/ucl/depts/uptrop/uclgcfs/gcgrid/gcdata/ExtData/HEMCO/CEDS/v2021-06/2019/ALK4_pentanes-em-anthro_CMIP_CEDS_2019.nc
HEMCO: Opening /shared/ucl/depts/uptrop/uclgcfs/gcgrid/gcdata/ExtData/HEMCO/CEDS/v2021-06/2019/ALK4_hexanes-em-anthro_CMIP_CEDS_2019.nc
HEMCO: Opening /shared/ucl/depts/uptrop/uclgcfs/gcgrid/gcdata/ExtData/HEMCO/CEDS/v2021-06/2019/C2H4-em-anthro_CMIP_CEDS_2019.nc
HEMCO: Opening /shared/ucl/depts/uptrop/uclgcfs/gcgrid/gcdata/ExtData/HEMCO/CEDS/v2021-06/2019/PRPE-em-anthro_CMIP_CEDS_2019.nc
HEMCO: Opening /shared/ucl/depts/uptrop/uclgcfs/gcgrid/gcdata/ExtData/HEMCO/CEDS/v2021-06/2019/C2H2-em-anthro_CMIP_CEDS_2019.nc
HEMCO: Opening /shared/ucl/depts/uptrop/uclgcfs/gcgrid/gcdata/ExtData/HEMCO/CEDS/v2021-06/2019/BENZ-em-anthro_CMIP_CEDS_2019.nc
HEMCO: Opening /shared/ucl/depts/uptrop/uclgcfs/gcgrid/gcdata/ExtData/HEMCO/CEDS/v2021-06/2019/TOLU-em-anthro_CMIP_CEDS_2019.nc
HEMCO: Opening /shared/ucl/depts/uptrop/uclgcfs/gcgrid/gcdata/ExtData/HEMCO/CEDS/v2021-06/2019/XYLE-em-anthro_CMIP_CEDS_2019.nc
HEMCO: Opening /shared/ucl/depts/uptrop/uclgcfs/gcgrid/gcdata/ExtData/HEMCO/CEDS/v2021-06/2019/CH2O-em-anthro_CMIP_CEDS_2019.nc
HEMCO: Opening /shared/ucl/depts/uptrop/uclgcfs/gcgrid/gcdata/ExtData/HEMCO/CEDS/v2021-06/2019/ALD2-em-anthro_CMIP_CEDS_2019.nc
HEMCO: Opening /shared/ucl/depts/uptrop/uclgcfs/gcgrid/gcdata/ExtData/HEMCO/CEDS/v2021-06/2019/MEK-em-anthro_CMIP_CEDS_2019.nc
HEMCO: Opening /shared/ucl/depts/uptrop/uclgcfs/gcgrid/gcdata/ExtData/HEMCO/CEDS/v2021-06/2019/HCOOH-em-anthro_CMIP_CEDS_2019.nc
HEMCO: Opening /shared/ucl/depts/uptrop/uclgcfs/gcgrid/gcdata/ExtData/HEMCO/NH3/v2019-08/NH3_geos.2x25.nc
HEMCO: Opening /shared/ucl/depts/uptrop/uclgcfs/gcgrid/gcdata/ExtData/HEMCO/NH3/v2018-04/NH3_Arctic_seabirds.nc
HEMCO: Opening /shared/ucl/depts/uptrop/uclgcfs/gcgrid/gcdata/ExtData/HEMCO/C2H6_2010/v2019-06/C2H6_global_anth_biof.201001.2x25.nc
HEMCO: Opening /shared/ucl/depts/uptrop/uclgcfs/gcgrid/gcdata/ExtData/HEMCO/IODINE/v2020-02/CH3I_monthly_emissions_Ordonez_2012_COARDS.nc
HEMCO: Opening /shared/ucl/depts/uptrop/uclgcfs/gcgrid/gcdata/ExtData/HEMCO/IODINE/v2020-02/CH2I2_monthly_emissions_Ordonez_2012_COARDS.nc
HEMCO: Opening /shared/ucl/depts/uptrop/uclgcfs/gcgrid/gcdata/ExtData/HEMCO/IODINE/v2020-02/CH2ICl_monthly_emissions_Ordonez_2012_COARDS.nc
HEMCO: Opening /shared/ucl/depts/uptrop/uclgcfs/gcgrid/gcdata/ExtData/HEMCO/IODINE/v2020-02/CH2IBr_monthly_emissions_Ordonez_2012_COARDS.nc
HEMCO: Opening /shared/ucl/depts/uptrop/uclgcfs/gcgrid/gcdata/ExtData/HEMCO/CEDS/v2021-06/2019/CO-em-anthro_CMIP_CEDS_2019.nc
HEMCO: Opening /shared/ucl/depts/uptrop/uclgcfs/gcgrid/gcdata/ExtData/HEMCO/CEDS/v2021-06/2019/SO2-em-anthro_CMIP_CEDS_2019.nc
HEMCO: Opening /shared/ucl/depts/uptrop/uclgcfs/gcgrid/gcdata/ExtData/HEMCO/CEDS/v2021-06/2019/NH3-em-anthro_CMIP_CEDS_2019.nc
HEMCO: Opening /shared/ucl/depts/uptrop/uclgcfs/gcgrid/gcdata/ExtData/HEMCO/CEDS/v2021-06/2019/BC-em-anthro_CMIP_CEDS_2019.nc
HEMCO: Opening /shared/ucl/depts/uptrop/uclgcfs/gcgrid/gcdata/ExtData/HEMCO/CEDS/v2021-06/2019/OC-em-anthro_CMIP_CEDS_2019.nc
HEMCO: Opening /shared/ucl/depts/uptrop/uclgcfs/gcgrid/gcdata/ExtData/HEMCO/CEDS/v2021-06/2019/EOH-em-anthro_CMIP_CEDS_2019.nc
HEMCO: Opening /shared/ucl/depts/uptrop/uclgcfs/gcgrid/gcdata/ExtData/HEMCO/CEDS/v2021-06/2019/C2H6-em-anthro_CMIP_CEDS_2019.nc
HEMCO: Opening /shared/ucl/depts/uptrop/uclgcfs/gcgrid/gcdata/ExtData/HEMCO/CEDS/v2021-06/2019/C3H8-em-anthro_CMIP_CEDS_2019.nc
HEMCO: Opening /shared/ucl/depts/uptrop/uclgcfs/gcgrid/gcdata/ExtData/HEMCO/CEDS/v2021-06/2019/ALK4_butanes-em-anthro_CMIP_CEDS_2019.nc
HEMCO: Opening /shared/ucl/depts/uptrop/uclgcfs/gcgrid/gcdata/ExtData/HEMCO/CEDS/v2021-06/2019/ALK4_pentanes-em-anthro_CMIP_CEDS_2019.nc
HEMCO: Opening /shared/ucl/depts/uptrop/uclgcfs/gcgrid/gcdata/ExtData/HEMCO/CEDS/v2021-06/2019/ALK4_hexanes-em-anthro_CMIP_CEDS_2019.nc
HEMCO: Opening /shared/ucl/depts/uptrop/uclgcfs/gcgrid/gcdata/ExtData/HEMCO/CEDS/v2021-06/2019/C2H4-em-anthro_CMIP_CEDS_2019.nc
HEMCO: Opening /shared/ucl/depts/uptrop/uclgcfs/gcgrid/gcdata/ExtData/HEMCO/CEDS/v2021-06/2019/PRPE-em-anthro_CMIP_CEDS_2019.nc
HEMCO: Opening /shared/ucl/depts/uptrop/uclgcfs/gcgrid/gcdata/ExtData/HEMCO/CEDS/v2021-06/2019/C2H2-em-anthro_CMIP_CEDS_2019.nc
HEMCO: Opening /shared/ucl/depts/uptrop/uclgcfs/gcgrid/gcdata/ExtData/HEMCO/CEDS/v2021-06/2019/BENZ-em-anthro_CMIP_CEDS_2019.nc
HEMCO: Opening /shared/ucl/depts/uptrop/uclgcfs/gcgrid/gcdata/ExtData/HEMCO/CEDS/v2021-06/2019/TOLU-em-anthro_CMIP_CEDS_2019.nc
HEMCO: Opening /shared/ucl/depts/uptrop/uclgcfs/gcgrid/gcdata/ExtData/HEMCO/CEDS/v2021-06/2019/XYLE-em-anthro_CMIP_CEDS_2019.nc
HEMCO: Opening /shared/ucl/depts/uptrop/uclgcfs/gcgrid/gcdata/ExtData/HEMCO/CEDS/v2021-06/2019/CH2O-em-anthro_CMIP_CEDS_2019.nc
HEMCO: Opening /shared/ucl/depts/uptrop/uclgcfs/gcgrid/gcdata/ExtData/HEMCO/CEDS/v2021-06/2019/ALD2-em-anthro_CMIP_CEDS_2019.nc
HEMCO: Opening /shared/ucl/depts/uptrop/uclgcfs/gcgrid/gcdata/ExtData/HEMCO/CEDS/v2021-06/2019/MEK-em-anthro_CMIP_CEDS_2019.nc
HEMCO: Opening /shared/ucl/depts/uptrop/uclgcfs/gcgrid/gcdata/ExtData/HEMCO/CEDS/v2021-06/2019/HCOOH-em-anthro_CMIP_CEDS_2019.nc
HEMCO: Opening /shared/ucl/depts/uptrop/uclgcfs/gcgrid/gcdata/ExtData/HEMCO/CEDS/v2021-06/2019/NO-em-anthro_CMIP_CEDS_2019.nc
HEMCO: Opening /shared/ucl/depts/uptrop/uclgcfs/gcgrid/gcdata/ExtData/HEMCO/AEIC2019/v2022-03/2019_monmean/AEIC_monmean_201901.0.5x0.625.36L.nc
HEMCO: Opening /shared/ucl/depts/uptrop/uclgcfs/gcgrid/gcdata/ExtData/HEMCO/ALD2/v2017-03/resp.geos.2x25.nc
HEMCO: Opening /shared/ucl/depts/uptrop/uclgcfs/gcgrid/gcdata/ExtData/HEMCO/AFCID/v2018-04/PM25FINE_ECLIPSE_2015.geos.2x25.nc
HEMCO: Opening /shared/ucl/depts/uptrop/uclgcfs/gcgrid/gcdata/ExtData/HEMCO/AFCID/v2018-04/PM25FINE_MEIC_2012.generic.025x025.nc
HEMCO: Opening /shared/ucl/depts/uptrop/uclgcfs/gcgrid/gcdata/ExtData/HEMCO/AFCID/v2018-04/PM25FINE_IITB_2013.generic.025x025.nc
HEMCO: Opening /shared/ucl/depts/uptrop/uclgcfs/gcgrid/gcdata/ExtData/HEMCO/DMS/v2015-07/DMS_lana.geos.1x1.nc
HEMCO: Opening /shared/ucl/depts/uptrop/uclgcfs/gcgrid/gcdata/ExtData/HEMCO/ALD2/v2017-03/ALD2_seawater.geos.2x25.nc
HEMCO: Opening /shared/ucl/depts/uptrop/uclgcfs/gcgrid/gcdata/ExtData/HEMCO/RONO2/v2019-05/RONO2_seawater.geos.2x25.nc
HEMCO: Opening /shared/ucl/depts/uptrop/uclgcfs/gcgrid/gcdata/ExtData/HEMCO/GFED4/v2023-03/2020/GFED4_gen.025x025.202001.nc
HEMCO: Opening /shared/ucl/depts/uptrop/uclgcfs/gcgrid/gcdata/ExtData/HEMCO/UVALBEDO/v2019-06/uvalbedo.geos.2x25.nc
HEMCO: Opening /shared/ucl/depts/uptrop/uclgcfs/gcgrid/gcdata/ExtData/HEMCO/STRAT/v2015-01/Bry/GEOSCCM_Bry.200701.day.nc
HEMCO: Opening /shared/ucl/depts/uptrop/uclgcfs/gcgrid/gcdata/ExtData/HEMCO/STRAT/v2015-01/Bry/GEOSCCM_Bry.200701.night.nc
HEMCO: Opening /shared/ucl/depts/uptrop/uclgcfs/gcgrid/gcdata/ExtData/HEMCO/GMI/v2015-02/gmi.clim.OH.geos5.2x25.nc
HEMCO: Opening /shared/ucl/depts/uptrop/uclgcfs/gcgrid/gcdata/ExtData/HEMCO/GMI/v2015-02/gmi.clim.ACET.geos5.2x25.nc
HEMCO: Opening /shared/ucl/depts/uptrop/uclgcfs/gcgrid/gcdata/ExtData/HEMCO/GMI/v2015-02/gmi.clim.ACTA.geos5.2x25.nc
HEMCO: Opening /shared/ucl/depts/uptrop/uclgcfs/gcgrid/gcdata/ExtData/HEMCO/GMI/v2015-02/gmi.clim.ALD2.geos5.2x25.nc
HEMCO: Opening /shared/ucl/depts/uptrop/uclgcfs/gcgrid/gcdata/ExtData/HEMCO/GMI/v2015-02/gmi.clim.ALK4.geos5.2x25.nc
HEMCO: Opening /shared/ucl/depts/uptrop/uclgcfs/gcgrid/gcdata/ExtData/HEMCO/GMI/v2015-02/gmi.clim.C2H6.geos5.2x25.nc
HEMCO: Opening /shared/ucl/depts/uptrop/uclgcfs/gcgrid/gcdata/ExtData/HEMCO/GMI/v2015-02/gmi.clim.C3H8.geos5.2x25.nc
HEMCO: Opening /shared/ucl/depts/uptrop/uclgcfs/gcgrid/gcdata/ExtData/HEMCO/GMI/v2015-02/gmi.clim.CCl4.geos5.2x25.nc
HEMCO: Opening /shared/ucl/depts/uptrop/uclgcfs/gcgrid/gcdata/ExtData/HEMCO/GMI/v2015-02/gmi.clim.CF2Cl2.geos5.2x25.nc
HEMCO: Opening /shared/ucl/depts/uptrop/uclgcfs/gcgrid/gcdata/ExtData/HEMCO/GMI/v2015-02/gmi.clim.CF2ClBr.geos5.2x25.nc
HEMCO: Opening /shared/ucl/depts/uptrop/uclgcfs/gcgrid/gcdata/ExtData/HEMCO/GMI/v2015-02/gmi.clim.CFC113.geos5.2x25.nc
HEMCO: Opening /shared/ucl/depts/uptrop/uclgcfs/gcgrid/gcdata/ExtData/HEMCO/GMI/v2015-02/gmi.clim.CFC114.geos5.2x25.nc
HEMCO: Opening /shared/ucl/depts/uptrop/uclgcfs/gcgrid/gcdata/ExtData/HEMCO/GMI/v2015-02/gmi.clim.CFC115.geos5.2x25.nc
HEMCO: Opening /shared/ucl/depts/uptrop/uclgcfs/gcgrid/gcdata/ExtData/HEMCO/GMI/v2015-02/gmi.clim.CFCl3.geos5.2x25.nc
HEMCO: Opening /shared/ucl/depts/uptrop/uclgcfs/gcgrid/gcdata/ExtData/HEMCO/GMI/v2015-02/gmi.clim.CH2O.geos5.2x25.nc
HEMCO: Opening /shared/ucl/depts/uptrop/uclgcfs/gcgrid/gcdata/ExtData/HEMCO/GMI/v2015-02/gmi.clim.CH3CCl3.geos5.2x25.nc
HEMCO: Opening /shared/ucl/depts/uptrop/uclgcfs/gcgrid/gcdata/ExtData/HEMCO/GMI/v2015-02/gmi.clim.CH3Cl.geos5.2x25.nc
HEMCO: Opening /shared/ucl/depts/uptrop/uclgcfs/gcgrid/gcdata/ExtData/HEMCO/GMI/v2015-02/gmi.clim.CH4.geos5.2x25.nc
HEMCO: Opening /shared/ucl/depts/uptrop/uclgcfs/gcgrid/gcdata/ExtData/HEMCO/GMI/v2015-02/gmi.clim.CO.geos5.2x25.nc
HEMCO: Opening /shared/ucl/depts/uptrop/uclgcfs/gcgrid/gcdata/ExtData/HEMCO/GMI/v2015-02/gmi.clim.Cl.geos5.2x25.nc
HEMCO: Opening /shared/ucl/depts/uptrop/uclgcfs/gcgrid/gcdata/ExtData/HEMCO/GMI/v2015-02/gmi.clim.Cl2.geos5.2x25.nc
HEMCO: Opening /shared/ucl/depts/uptrop/uclgcfs/gcgrid/gcdata/ExtData/HEMCO/GMI/v2015-02/gmi.clim.Cl2O2.geos5.2x25.nc
HEMCO: Opening /shared/ucl/depts/uptrop/uclgcfs/gcgrid/gcdata/ExtData/HEMCO/GMI/v2015-02/gmi.clim.ClO.geos5.2x25.nc
HEMCO: Opening /shared/ucl/depts/uptrop/uclgcfs/gcgrid/gcdata/ExtData/HEMCO/GMI/v2015-02/gmi.clim.EOH.geos5.2x25.nc
HEMCO: Opening /shared/ucl/depts/uptrop/uclgcfs/gcgrid/gcdata/ExtData/HEMCO/GMI/v2015-02/gmi.clim.ETP.geos5.2x25.nc
HEMCO: Opening /shared/ucl/depts/uptrop/uclgcfs/gcgrid/gcdata/ExtData/HEMCO/GMI/v2015-02/gmi.clim.GLYC.geos5.2x25.nc
HEMCO: Opening /shared/ucl/depts/uptrop/uclgcfs/gcgrid/gcdata/ExtData/HEMCO/GMI/v2015-02/gmi.clim.GLYX.geos5.2x25.nc
HEMCO: Opening /shared/ucl/depts/uptrop/uclgcfs/gcgrid/gcdata/ExtData/HEMCO/GMI/v2015-02/gmi.clim.H2402.geos5.2x25.nc
HEMCO: Opening /shared/ucl/depts/uptrop/uclgcfs/gcgrid/gcdata/ExtData/HEMCO/GMI/v2015-02/gmi.clim.H2O.geos5.2x25.nc
HEMCO: Opening /shared/ucl/depts/uptrop/uclgcfs/gcgrid/gcdata/ExtData/HEMCO/GMI/v2015-02/gmi.clim.H2O2.geos5.2x25.nc
HEMCO: Opening /shared/ucl/depts/uptrop/uclgcfs/gcgrid/gcdata/ExtData/HEMCO/GMI/v2015-02/gmi.clim.HAC.geos5.2x25.nc
HEMCO: Opening /shared/ucl/depts/uptrop/uclgcfs/gcgrid/gcdata/ExtData/HEMCO/GMI/v2015-02/gmi.clim.HCFC141b.geos5.2x25.nc
HEMCO: Opening /shared/ucl/depts/uptrop/uclgcfs/gcgrid/gcdata/ExtData/HEMCO/GMI/v2015-02/gmi.clim.HCFC142b.geos5.2x25.nc
HEMCO: Opening /shared/ucl/depts/uptrop/uclgcfs/gcgrid/gcdata/ExtData/HEMCO/GMI/v2015-02/gmi.clim.HCFC22.geos5.2x25.nc
HEMCO: Opening /shared/ucl/depts/uptrop/uclgcfs/gcgrid/gcdata/ExtData/HEMCO/GMI/v2015-02/gmi.clim.HCOOH.geos5.2x25.20170108.nc
HEMCO: Opening /shared/ucl/depts/uptrop/uclgcfs/gcgrid/gcdata/ExtData/HEMCO/GMI/v2015-02/gmi.clim.HCl.geos5.2x25.nc
HEMCO: Opening /shared/ucl/depts/uptrop/uclgcfs/gcgrid/gcdata/ExtData/HEMCO/GMI/v2015-02/gmi.clim.HNO2.geos5.2x25.nc
HEMCO: Opening /shared/ucl/depts/uptrop/uclgcfs/gcgrid/gcdata/ExtData/HEMCO/GMI/v2015-02/gmi.clim.HNO3.geos5.2x25.nc
HEMCO: Opening /shared/ucl/depts/uptrop/uclgcfs/gcgrid/gcdata/ExtData/HEMCO/GMI/v2015-02/gmi.clim.HNO4.geos5.2x25.nc
HEMCO: Opening /shared/ucl/depts/uptrop/uclgcfs/gcgrid/gcdata/ExtData/HEMCO/GMI/v2015-02/gmi.clim.HOCl.geos5.2x25.nc
HEMCO: Opening /shared/ucl/depts/uptrop/uclgcfs/gcgrid/gcdata/ExtData/HEMCO/GMI/v2015-02/gmi.clim.ISOP.geos5.2x25.nc
HEMCO: Opening /shared/ucl/depts/uptrop/uclgcfs/gcgrid/gcdata/ExtData/HEMCO/GMI/v2015-02/gmi.clim.MACR.geos5.2x25.nc
HEMCO: Opening /shared/ucl/depts/uptrop/uclgcfs/gcgrid/gcdata/ExtData/HEMCO/GMI/v2015-02/gmi.clim.MAP.geos5.2x25.nc
HEMCO: Opening /shared/ucl/depts/uptrop/uclgcfs/gcgrid/gcdata/ExtData/HEMCO/GMI/v2015-02/gmi.clim.MEK.geos5.2x25.nc
HEMCO: Opening /shared/ucl/depts/uptrop/uclgcfs/gcgrid/gcdata/ExtData/HEMCO/GMI/v2015-02/gmi.clim.MGLY.geos5.2x25.nc
HEMCO: Opening /shared/ucl/depts/uptrop/uclgcfs/gcgrid/gcdata/ExtData/HEMCO/GMI/v2015-02/gmi.clim.MOH.geos5.2x25.nc
HEMCO: Opening /shared/ucl/depts/uptrop/uclgcfs/gcgrid/gcdata/ExtData/HEMCO/GMI/v2015-02/gmi.clim.MP.geos5.2x25.nc
HEMCO: Opening /shared/ucl/depts/uptrop/uclgcfs/gcgrid/gcdata/ExtData/HEMCO/GMI/v2015-02/gmi.clim.MVK.geos5.2x25.nc
HEMCO: Opening /shared/ucl/depts/uptrop/uclgcfs/gcgrid/gcdata/ExtData/HEMCO/GMI/v2015-02/gmi.clim.N2O.geos5.2x25.nc
HEMCO: Opening /shared/ucl/depts/uptrop/uclgcfs/gcgrid/gcdata/ExtData/HEMCO/GMI/v2015-02/gmi.clim.N2O5.geos5.2x25.nc
HEMCO: Opening /shared/ucl/depts/uptrop/uclgcfs/gcgrid/gcdata/ExtData/HEMCO/GMI/v2015-02/gmi.clim.NO.geos5.2x25.nc
HEMCO: Opening /shared/ucl/depts/uptrop/uclgcfs/gcgrid/gcdata/ExtData/HEMCO/GMI/v2015-02/gmi.clim.NO2.geos5.2x25.nc
HEMCO: Opening /shared/ucl/depts/uptrop/uclgcfs/gcgrid/gcdata/ExtData/HEMCO/GMI/v2015-02/gmi.clim.NO3.geos5.2x25.nc
HEMCO: Opening /shared/ucl/depts/uptrop/uclgcfs/gcgrid/gcdata/ExtData/HEMCO/GMI/v2015-02/gmi.clim.O3.geos5.2x25.nc
HEMCO: Opening /shared/ucl/depts/uptrop/uclgcfs/gcgrid/gcdata/ExtData/HEMCO/GMI/v2015-02/gmi.clim.OClO.geos5.2x25.nc
HEMCO: Opening /shared/ucl/depts/uptrop/uclgcfs/gcgrid/gcdata/ExtData/HEMCO/GMI/v2015-02/gmi.clim.PAN.geos5.2x25.nc
HEMCO: Opening /shared/ucl/depts/uptrop/uclgcfs/gcgrid/gcdata/ExtData/HEMCO/GMI/v2015-02/gmi.clim.PP.geos5.2x25.nc
HEMCO: Opening /shared/ucl/depts/uptrop/uclgcfs/gcgrid/gcdata/ExtData/HEMCO/GMI/v2015-02/gmi.clim.PPN.geos5.2x25.nc
HEMCO: Opening /shared/ucl/depts/uptrop/uclgcfs/gcgrid/gcdata/ExtData/HEMCO/GMI/v2015-02/gmi.clim.PRPE.geos5.2x25.nc
HEMCO: Opening /shared/ucl/depts/uptrop/uclgcfs/gcgrid/gcdata/ExtData/HEMCO/GMI/v2015-02/gmi.clim.PRPN.geos5.2x25.nc
HEMCO: Opening /shared/ucl/depts/uptrop/uclgcfs/gcgrid/gcdata/ExtData/HEMCO/GMI/v2015-02/gmi.clim.R4N2.geos5.2x25.nc
HEMCO: Opening /shared/ucl/depts/uptrop/uclgcfs/gcgrid/gcdata/ExtData/HEMCO/GMI/v2015-02/gmi.clim.R4P.geos5.2x25.nc
HEMCO: Opening /shared/ucl/depts/uptrop/uclgcfs/gcgrid/gcdata/ExtData/HEMCO/GMI/v2015-02/gmi.clim.RA3P.geos5.2x25.nc
HEMCO: Opening /shared/ucl/depts/uptrop/uclgcfs/gcgrid/gcdata/ExtData/HEMCO/GMI/v2015-02/gmi.clim.RB3P.geos5.2x25.nc
HEMCO: Opening /shared/ucl/depts/uptrop/uclgcfs/gcgrid/gcdata/ExtData/HEMCO/GMI/v2015-02/gmi.clim.RCHO.geos5.2x25.nc
HEMCO: Opening /shared/ucl/depts/uptrop/uclgcfs/gcgrid/gcdata/ExtData/HEMCO/GMI/v2015-02/gmi.clim.RIPA.geos5.2x25.nc
HEMCO: Opening /shared/ucl/depts/uptrop/uclgcfs/gcgrid/gcdata/ExtData/HEMCO/GMI/v2015-02/gmi.clim.RIPB.geos5.2x25.nc
HEMCO: Opening /shared/ucl/depts/uptrop/uclgcfs/gcgrid/gcdata/ExtData/HEMCO/GMI/v2015-02/gmi.clim.RIPD.geos5.2x25.nc
HEMCO: Opening /shared/ucl/depts/uptrop/uclgcfs/gcgrid/gcdata/ExtData/HEMCO/GMI/v2015-02/gmi.clim.RP.geos5.2x25.nc
HEMCO: Opening /shared/ucl/depts/uptrop/uclgcfs/gcgrid/gcdata/ExtData/HEMCO/NOAA_GMD/v2018-01/monthly.gridded.surface.methane.1979-2020.1x1.nc
HEMCO: Opening /shared/ucl/depts/uptrop/uclgcfs/gcgrid/gcdata/ExtData/HEMCO/CMIP6/v2020-03/2x2.5/CMIP6_GHG_surface_VMR_2014.2x25.nc
HEMCO: Opening /shared/ucl/depts/uptrop/uclgcfs/gcgrid/gcdata/ExtData/HEMCO/SfcFix/v2019-12/WMO_2018/2x2.5/surface_VMRs_WMO2018_2020.2x25.nc
HEMCO: Opening /shared/ucl/depts/uptrop/uclgcfs/gcgrid/gcdata/ExtData/HEMCO/OCEAN_O3_DRYDEP/v2020-02/Oi_prj_predicted_iodide_0.125x0.125_No_Skagerrak_Just_Ensemble.nc
HEMCO: Opening /shared/ucl/depts/uptrop/uclgcfs/gcgrid/gcdata/ExtData/HEMCO/BROMINE/v2015-02/BromoCarb_Season.nc
HEMCO: Opening ./../../../Scratch/Emission_Inv/2020/01/ROCKET_EMIS_4x5_47L_20200101.nc4
HEMCO: Opening ./../../../Scratch/Emission_Inv/2020/01/ROCKET_EMIS_MCS_4x5_47L_20200101.nc4
HEMCO: Opening /shared/ucl/depts/uptrop/uclgcfs/gcgrid/gcdata/ExtData/HEMCO/OFFLINE_DUST/v2021-08/0.5x0.625/2020/01/dust_emissions_05.20200101.nc
HEMCO: Opening /shared/ucl/depts/uptrop/uclgcfs/gcgrid/gcdata/ExtData/HEMCO/OFFLINE_BIOVOC/v2021-12/0.5x0.625/2020/01/biovoc_05.20200101.nc
HEMCO: Opening /shared/ucl/depts/uptrop/uclgcfs/gcgrid/gcdata/ExtData/HEMCO/OFFLINE_SEASALT/v2019-01/0.5x0.625/2020/01/seasalt_05.20200101.nc
HEMCO: Opening /shared/ucl/depts/uptrop/uclgcfs/gcgrid/gcdata/ExtData/HEMCO/OFFLINE_SOILNOX/v2021-12/0.5x0.625/2020/01/soilnox_05.20200101.nc
HEMCO: Opening /shared/ucl/depts/uptrop/uclgcfs/gcgrid/gcdata/ExtData/GEOS_4x5/MERRA2/2020/01/MERRA2.20200101.A1.4x5.nc4
HEMCO: Opening /shared/ucl/depts/uptrop/uclgcfs/gcgrid/gcdata/ExtData/GEOS_4x5/MERRA2/2020/01/MERRA2.20200101.A3cld.4x5.nc4
HEMCO: Opening /shared/ucl/depts/uptrop/uclgcfs/gcgrid/gcdata/ExtData/GEOS_4x5/MERRA2/2020/01/MERRA2.20200101.A3dyn.4x5.nc4
HEMCO: Opening /shared/ucl/depts/uptrop/uclgcfs/gcgrid/gcdata/ExtData/GEOS_4x5/MERRA2/2020/01/MERRA2.20200101.A3mstC.4x5.nc4
HEMCO: Opening /shared/ucl/depts/uptrop/uclgcfs/gcgrid/gcdata/ExtData/GEOS_4x5/MERRA2/2020/01/MERRA2.20200101.A3mstE.4x5.nc4
HEMCO: Opening /shared/ucl/depts/uptrop/uclgcfs/gcgrid/gcdata/ExtData/GEOS_4x5/MERRA2/2020/01/MERRA2.20200101.I3.4x5.nc4
HEMCO: Opening /shared/ucl/depts/uptrop/uclgcfs/gcgrid/gcdata/ExtData/GEOS_4x5/MERRA2/2020/01/MERRA2.20200102.I3.4x5.nc4
HEMCO: Opening /shared/ucl/depts/uptrop/uclgcfs/gcgrid/gcdata/ExtData/HEMCO/Yuan_XLAI/v2021-06/Yuan_proc_MODIS_XLAI.025x025.2020.nc
HEMCO: Opening /shared/ucl/depts/uptrop/uclgcfs/gcgrid/gcdata/ExtData/HEMCO/OFFLINE_LIGHTNING/v2020-03/MERRA2/2020/FLASH_CTH_MERRA2_0.5x0.625_2020_01.nc4
HEMCO: Opening ./Restarts/GEOSChem.Restart.20200101_0000z.nc4
     - Found all CN     met fields for 2011/01/01 00:00
     - Found all A1     met fields for 2020/01/01 00:30
     - Found all A3cld  met fields for 2020/01/01 01:30
     - Found all A3dyn  met fields for 2020/01/01 01:30
     - Found all A3mstC met fields for 2020/01/01 01:30
     - Found all A3mstE met fields for 2020/01/01 01:30
     - Found all I3     met fields for 2020/01/01 00:00
 DELP_DRY not found in restart, set to zero
     - Found all I3     met fields for 2020/01/01 03:00
===============================================================================
R E S T A R T   F I L E   I N P U T

Min and Max of each species in restart file [mol/mol]:
Species   1,     ACET: Min = 2.850812220E-18  Max = 6.810301656E-09  Sum = 5.774473175E-05
Species   2,     ACTA: Min = 1.311802857E-19  Max = 1.121342752E-08  Sum = 3.664732958E-06
Species   3,     AERI: Min = 4.002508079E-16  Max = 1.398380283E-11  Sum = 4.530920705E-08
Species   4,    AL2O3: Min = 0.000000000E+00  Max = 0.000000000E+00  Sum = 0.000000000E+00
Species   5,     ALD2: Min = 3.276066652E-19  Max = 7.370496657E-09  Sum = 6.609082902E-06
Species   6,     ALK4: Min = 0.000000000E+00  Max = 2.398259547E-08  Sum = 2.995885006E-05
Species   7,   AONITA: Min = 4.579511687E-16  Max = 3.351649236E-10  Sum = 2.315492225E-07
Species   8,   AROMP4: Min = 4.578270398E-34  Max = 1.240562601E-11  Sum = 9.669877121E-10
Species   9,   AROMP5: Min = 0.000000000E+00  Max = 4.265748779E-12  Sum = 4.267741438E-10
Species  10,    ATOOH: Min = 1.737400384E-21  Max = 1.076141065E-09  Sum = 9.968359791E-07
Species  11,     BALD: Min = 0.000000000E+00  Max = 2.051275469E-11  Sum = 3.031718521E-08
Species  12,     BCPI: Min = 1.583918683E-15  Max = 1.044048847E-08  Sum = 6.958438462E-06
Species  13,     BCPO: Min = 0.000000000E+00  Max = 1.124889781E-08  Sum = 1.272640816E-06
Species  14,     BENZ: Min = 3.374243835E-36  Max = 2.532852372E-09  Sum = 3.639118404E-06
Species  15,    BENZP: Min = 3.166245050E-31  Max = 5.335034844E-11  Sum = 3.216921129E-07
Species  16,       Br: Min = 0.000000000E+00  Max = 2.340985565E-11  Sum = 1.675677908E-07
Species  17,      Br2: Min = 0.000000000E+00  Max = 1.494618145E-11  Sum = 4.494831174E-08
Species  18,     BrCl: Min = 4.229875950E-20  Max = 1.839442661E-11  Sum = 1.729754615E-07
Species  19,    BrNO2: Min = 8.225603565E-20  Max = 8.436982883E-12  Sum = 4.076999183E-09
Species  20,    BrNO3: Min = 0.000000000E+00  Max = 1.995248237E-11  Sum = 2.474902772E-07
Species  21,      BrO: Min = 0.000000000E+00  Max = 2.281027450E-11  Sum = 3.158408504E-07
Species  22,   BrSALA: Min = 1.729031206E-38  Max = 8.999326458E-12  Sum = 8.426867204E-09
Species  23,   BrSALC: Min = 1.135051756E-43  Max = 5.588972340E-11  Sum = 6.372637529E-08
Species  24,    BUTDI: Min = 3.769083163E-15  Max = 1.279975237E-09  Sum = 3.992113488E-05
Species  25,   BZCO3H: Min = 4.943780982E-42  Max = 1.462650530E-12  Sum = 3.066597198E-09
Species  26,    BZPAN: Min = 6.722028173E-38  Max = 1.095545182E-11  Sum = 2.114085262E-08
Species  27,     C2H2: Min = 2.525489673E-24  Max = 4.930371222E-09  Sum = 8.004322808E-06
Species  28,     C2H4: Min = 0.000000000E+00  Max = 7.920355927E-09  Sum = 5.759440228E-06
Species  29,     C2H6: Min = 4.199257342E-36  Max = 9.238680931E-09  Sum = 5.574735042E-05
Species  30,     C3H8: Min = 0.000000000E+00  Max = 9.275971991E-09  Sum = 1.732923010E-05
Species  31,     CCl4: Min = 0.000000000E+00  Max = 7.774015459E-11  Sum = 9.323252016E-06
Species  32,    CFC11: Min = 2.996390724E-24  Max = 2.248904257E-10  Sum = 2.720716657E-05
Species  33,   CFC113: Min = 1.794367521E-20  Max = 6.968006033E-11  Sum = 8.710367183E-06
Species  34,   CFC114: Min = 7.501196387E-13  Max = 1.584008792E-11  Sum = 2.136692274E-06
Species  35,   CFC115: Min = 5.653960806E-12  Max = 8.520006749E-12  Sum = 1.274417400E-06
Species  36,    CFC12: Min = 3.091623501E-14  Max = 5.028404360E-10  Sum = 6.384075095E-05
Species  37,   CH2Br2: Min = 1.710985425E-42  Max = 2.189759441E-12  Sum = 7.885494568E-08
Species  38,   CH2Cl2: Min = 1.467650405E-20  Max = 6.745597830E-11  Sum = 3.799006208E-06
Species  39,    CH2I2: Min = 0.000000000E+00  Max = 2.379057509E-13  Sum = 1.639283709E-10
Species  40,   CH2IBr: Min = 0.000000000E+00  Max = 3.545107730E-13  Sum = 3.584451347E-10
Species  41,   CH2ICl: Min = 0.000000000E+00  Max = 1.378735559E-12  Sum = 2.366124630E-09
Species  42,     CH2O: Min = 6.228731940E-12  Max = 1.820475326E-08  Sum = 2.334695455E-05
Species  43,    CH3Br: Min = 7.215786028E-29  Max = 6.928067495E-12  Sum = 7.560585686E-07
Species  44,  CH3CCl3: Min = 6.287878443E-40  Max = 1.526406931E-12  Sum = 1.821256035E-07
Species  45,    CH3Cl: Min = 7.556031098E-15  Max = 5.508190015E-10  Sum = 6.391981151E-05
Species  46,     CH3I: Min = 0.000000000E+00  Max = 2.658855081E-11  Sum = 3.302605833E-08
Species  47,      CH4: Min = 1.720329834E-07  Max = 2.045238489E-06  Sum = 2.511347234E-01
Species  48,    CHBr3: Min = 0.000000000E+00  Max = 5.576835868E-12  Sum = 7.528944934E-08
Species  49,    CHCl3: Min = 6.182741223E-18  Max = 1.462586129E-11  Sum = 1.078080800E-06
Species  50,       Cl: Min = 1.519007535E-41  Max = 1.357340490E-10  Sum = 5.710231790E-07
Species  51,      Cl2: Min = 1.491110898E-24  Max = 6.713533895E-11  Sum = 1.717993143E-07
Species  52,    Cl2O2: Min = 0.000000000E+00  Max = 1.819764617E-10  Sum = 5.849891949E-08
Species  53,    ClNO2: Min = 0.000000000E+00  Max = 2.269679028E-10  Sum = 9.874334239E-08
Species  54,    ClNO3: Min = 2.672458031E-20  Max = 1.578432607E-09  Sum = 1.264078583E-05
Species  55,      ClO: Min = 1.433625448E-22  Max = 4.959064825E-10  Sum = 3.556778211E-06
Species  56,     ClOO: Min = 1.684681035E-32  Max = 1.107431035E-14  Sum = 1.771567441E-11
Species  57,    CLOCK: Min = 1.226635590E+02  Max = 4.422673920E+09  Sum = 1.609645362E+14
Species  58,       CO: Min = 1.144243367E-08  Max = 1.084545488E-06  Sum = 8.284898475E-03
Species  59,      CSL: Min = 0.000000000E+00  Max = 6.869949054E-12  Sum = 3.079334565E-09
Species  60,      DMS: Min = 0.000000000E+00  Max = 3.457501396E-09  Sum = 3.010436785E-06
Species  61,     DST1: Min = 6.532529940E-33  Max = 5.268229231E-08  Sum = 4.938845814E-05
Species  62,     DST2: Min = 1.000189626E-36  Max = 9.269998458E-08  Sum = 3.944577111E-05
Species  63,     DST3: Min = 5.035187681E-40  Max = 1.271152428E-07  Sum = 4.229918341E-05
Species  64,     DST4: Min = 0.000000000E+00  Max = 5.363395772E-08  Sum = 1.217881072E-05
Species  65,      EOH: Min = 1.971064029E-24  Max = 2.306851155E-09  Sum = 2.545453299E-06
Species  66,    ETHLN: Min = 0.000000000E+00  Max = 2.543328742E-11  Sum = 3.777593349E-09
Species  67,     ETHN: Min = 1.293688930E-35  Max = 9.576660645E-12  Sum = 1.421600970E-08
Species  68,     ETHP: Min = 0.000000000E+00  Max = 2.198990157E-10  Sum = 3.368380987E-07
Species  69,    ETNO3: Min = 1.023844710E-40  Max = 1.047129137E-11  Sum = 1.938019381E-07
Species  70,      ETP: Min = 5.606791751E-21  Max = 2.554749190E-10  Sum = 9.124187841E-07
Species  71,     FURA: Min = 0.000000000E+00  Max = 1.690168450E-09  Sum = 2.904539897E-08
Species  72,     GLYC: Min = 0.000000000E+00  Max = 1.233015801E-09  Sum = 1.611254334E-06
Species  73,     GLYX: Min = 0.000000000E+00  Max = 1.467489352E-09  Sum = 1.162183878E-07
Species  74,    H1211: Min = 2.073046736E-32  Max = 3.290023852E-12  Sum = 3.865394262E-07
Species  75,    H1301: Min = 1.968316624E-24  Max = 3.330006410E-12  Sum = 4.098944828E-07
Species  76,    H2402: Min = 0.000000000E+00  Max = 3.900028900E-13  Sum = 4.600358849E-08
Species  77,      H2O: Min = 7.516333653E-07  Max = 3.237972781E-02  Sum = 4.901524963E+02
Species  78,     H2O2: Min = 1.074380571E-14  Max = 4.838192069E-09  Sum = 4.347806316E-05
Species  79,      HAC: Min = 1.994047715E-42  Max = 1.189932930E-09  Sum = 1.158382133E-06
Species  80,      HBr: Min = 6.153637989E-33  Max = 1.422178261E-11  Sum = 9.386475597E-08
Species  81,     HC5A: Min = 0.000000000E+00  Max = 5.587967936E-11  Sum = 2.350621209E-08
Species  82,  HCFC123: Min = 2.237873648E-42  Max = 8.977634344E-36  Sum = 3.239985692E-31
Species  83, HCFC141b: Min = 1.842935206E-22  Max = 2.562032878E-11  Sum = 3.163035899E-06
Species  84, HCFC142b: Min = 3.677661474E-12  Max = 2.264013803E-11  Sum = 3.102646360E-06
Species  85,   HCFC22: Min = 6.173891259E-11  Max = 2.475224470E-10  Sum = 3.421427755E-05
Species  86,      HCl: Min = 7.025480259E-16  Max = 3.265084425E-09  Sum = 8.452931797E-05
Species  87,    HCOOH: Min = 1.449107038E-25  Max = 8.482790470E-09  Sum = 6.719652447E-06
Species  88,       HI: Min = 0.000000000E+00  Max = 4.319185797E-13  Sum = 1.293631757E-09
Species  89,     HMHP: Min = 0.000000000E+00  Max = 8.467840873E-10  Sum = 5.011755206E-07
Species  90,     HMML: Min = 2.606415144E-43  Max = 9.941068801E-11  Sum = 6.769668204E-08
Species  91,      HMS: Min = 7.814929259E-15  Max = 9.975195114E-10  Sum = 5.982554967E-07
Species  92,     HNO2: Min = 9.523216655E-19  Max = 2.161008927E-09  Sum = 2.927317837E-07
Species  93,     HNO3: Min = 1.914680920E-17  Max = 1.348441536E-08  Sum = 1.342148753E-04
Species  94,     HNO4: Min = 2.487787051E-19  Max = 2.535372190E-10  Sum = 2.476783948E-06
Species  95,     HOBr: Min = 5.672131523E-19  Max = 2.016569377E-11  Sum = 1.384638040E-07
Species  96,     HOCl: Min = 7.225718410E-28  Max = 3.619641809E-10  Sum = 1.639103857E-06
Species  97,      HOI: Min = 5.055419200E-17  Max = 2.162285975E-11  Sum = 5.070270603E-08
Species  98,    HONIT: Min = 2.895696284E-37  Max = 8.291677067E-11  Sum = 1.275730366E-08
Species  99,   HPALD1: Min = 0.000000000E+00  Max = 6.121823881E-11  Sum = 1.034985342E-08
Species 100,   HPALD2: Min = 0.000000000E+00  Max = 1.319274551E-10  Sum = 3.238634250E-08
Species 101,   HPALD3: Min = 0.000000000E+00  Max = 4.488564381E-11  Sum = 9.572103998E-09
Species 102,   HPALD4: Min = 0.000000000E+00  Max = 9.622650593E-11  Sum = 2.447280423E-08
Species 103,  HPETHNL: Min = 0.000000000E+00  Max = 9.875211759E-11  Sum = 2.798504717E-08
Species 104,        I: Min = 0.000000000E+00  Max = 9.615164567E-13  Sum = 9.297940196E-09
Species 105,       I2: Min = 2.101106917E-41  Max = 1.566071627E-13  Sum = 9.492162611E-11
Species 106,     I2O2: Min = 0.000000000E+00  Max = 3.273009508E-14  Sum = 8.740309865E-11
Species 107,     I2O3: Min = 0.000000000E+00  Max = 3.065246353E-13  Sum = 2.553327549E-10
Species 108,     I2O4: Min = 0.000000000E+00  Max = 1.138675878E-14  Sum = 9.615395286E-12
Species 109,      IBr: Min = 0.000000000E+00  Max = 1.213519411E-12  Sum = 4.957665389E-10
Species 110,     ICHE: Min = 0.000000000E+00  Max = 1.492932583E-10  Sum = 7.679846448E-08
Species 111,      ICl: Min = 5.249786888E-24  Max = 1.020029460E-11  Sum = 5.146906457E-09
Species 112,      ICN: Min = 0.000000000E+00  Max = 2.619045536E-10  Sum = 2.685464473E-08
Species 113,    ICPDH: Min = 0.000000000E+00  Max = 3.151584549E-11  Sum = 1.793638482E-08
Species 114,      IDC: Min = 0.000000000E+00  Max = 6.920222034E-11  Sum = 3.007566107E-08
Species 115,    IDCHP: Min = 0.000000000E+00  Max = 2.289817988E-11  Sum = 1.308338859E-08
Species 116,    IDHDP: Min = 0.000000000E+00  Max = 9.787345240E-11  Sum = 3.748596100E-08
Species 117,    IDHPE: Min = 4.484155086E-44  Max = 2.810023325E-10  Sum = 1.875488493E-07
Species 118,      IDN: Min = 0.000000000E+00  Max = 3.420947206E-11  Sum = 2.471909788E-09
Species 119,   IEPOXA: Min = 0.000000000E+00  Max = 1.428390739E-09  Sum = 5.615986538E-07
Species 120,   IEPOXB: Min = 0.000000000E+00  Max = 8.127553630E-10  Sum = 3.279813825E-07
Species 121,   IEPOXD: Min = 0.000000000E+00  Max = 6.926605817E-11  Sum = 3.040095820E-08
Species 122,     IHN1: Min = 0.000000000E+00  Max = 2.047152899E-11  Sum = 3.292938811E-09
Species 123,     IHN2: Min = 0.000000000E+00  Max = 3.306092206E-11  Sum = 1.004651917E-08
Species 124,     IHN3: Min = 0.000000000E+00  Max = 1.766110175E-11  Sum = 8.004712448E-09
Species 125,     IHN4: Min = 0.000000000E+00  Max = 3.981006930E-12  Sum = 1.011723150E-09
Species 126,   INDIOL: Min = 1.829942346E-14  Max = 2.883052241E-09  Sum = 2.818692337E-06
Species 127,      INO: Min = 2.594784398E-22  Max = 7.095693255E-14  Sum = 1.192866812E-11
Species 128,     INPB: Min = 0.000000000E+00  Max = 2.379096919E-11  Sum = 6.260306495E-09
Species 129,     INPD: Min = 0.000000000E+00  Max = 2.543013369E-11  Sum = 6.269226471E-09
Species 130,       IO: Min = 3.070399114E-22  Max = 3.000934787E-12  Sum = 1.310543318E-08
Species 131,   IONITA: Min = 0.000000000E+00  Max = 4.790461083E-11  Sum = 1.506471214E-08
Species 132,     IONO: Min = 0.000000000E+00  Max = 2.197188557E-13  Sum = 9.376796006E-10
Species 133,    IONO2: Min = 1.947583101E-33  Max = 8.846259662E-12  Sum = 1.344994605E-08
Species 134,   IPRNO3: Min = 7.765605916E-24  Max = 8.146934516E-11  Sum = 6.208395007E-07
Species 135,    ISALA: Min = 4.557469375E-17  Max = 1.678988762E-12  Sum = 7.065090291E-09
Species 136,    ISALC: Min = 1.359320441E-20  Max = 1.466315784E-12  Sum = 2.857980741E-09
Species 137,     ISOP: Min = 0.000000000E+00  Max = 1.420200579E-08  Sum = 1.356563530E-06
Species 138,     ITCN: Min = 0.000000000E+00  Max = 2.683883844E-11  Sum = 1.023400920E-08
Species 139,     ITHN: Min = 0.000000000E+00  Max = 6.328289281E-11  Sum = 2.100678209E-08
Species 140,     LIMO: Min = 0.000000000E+00  Max = 1.137926489E-10  Sum = 5.681347393E-09
Species 141,     LVOC: Min = 0.000000000E+00  Max = 2.593143365E-12  Sum = 3.402409465E-10
Species 142,   LVOCOA: Min = 3.849168381E-16  Max = 5.200558387E-11  Sum = 6.949037612E-08
Species 143,     MACR: Min = 0.000000000E+00  Max = 1.205031408E-09  Sum = 5.523525033E-07
Species 144, MACR1OOH: Min = 0.000000000E+00  Max = 6.501209987E-11  Sum = 3.090340783E-08
Species 145,      MAP: Min = 3.018806502E-19  Max = 1.587053489E-09  Sum = 4.526437806E-06
Species 146,    MCRDH: Min = 0.000000000E+00  Max = 1.487619750E-10  Sum = 6.503800876E-08
Species 147,  MCRENOL: Min = 0.000000000E+00  Max = 2.532677366E-11  Sum = 8.587011102E-09
Species 148,    MCRHN: Min = 0.000000000E+00  Max = 2.863380323E-12  Sum = 1.328926080E-09
Species 149,   MCRHNB: Min = 0.000000000E+00  Max = 3.452019573E-11  Sum = 2.811763711E-09
Species 150,    MCRHP: Min = 7.006492322E-45  Max = 5.723748558E-11  Sum = 4.567414180E-08
Species 151,      MCT: Min = 7.286752014E-44  Max = 1.480924216E-12  Sum = 2.653957498E-09
Species 152,      MEK: Min = 1.065371285E-33  Max = 2.605531790E-09  Sum = 4.797609108E-06
Species 153,    MENO3: Min = 1.674997828E-14  Max = 2.643678679E-11  Sum = 4.498810426E-07
Species 154,     MGLY: Min = 8.621013391E-23  Max = 1.421242457E-09  Sum = 3.657670788E-07
Species 155,      MOH: Min = 9.533994687E-13  Max = 1.658358606E-08  Sum = 3.357750393E-05
Species 156,   MONITA: Min = 0.000000000E+00  Max = 8.174134980E-11  Sum = 5.370596412E-09
Species 157,   MONITS: Min = 1.821688004E-44  Max = 7.308387229E-11  Sum = 1.374996028E-08
Species 158,   MONITU: Min = 0.000000000E+00  Max = 1.607351058E-11  Sum = 2.001611987E-09
Species 159,       MP: Min = 1.006334298E-13  Max = 2.452670955E-09  Sum = 2.912514174E-05
Species 160,     MPAN: Min = 0.000000000E+00  Max = 7.160062127E-11  Sum = 3.152777239E-08
Species 161,      MPN: Min = 1.807785891E-16  Max = 1.413899137E-10  Sum = 2.376041266E-06
Species 162,      MSA: Min = 1.926856806E-14  Max = 1.025067253E-10  Sum = 8.613298519E-07
Species 163,     MTPA: Min = 0.000000000E+00  Max = 1.864580490E-09  Sum = 1.430034757E-07
Species 164,     MTPO: Min = 0.000000000E+00  Max = 1.210199441E-10  Sum = 4.849988855E-09
Species 165,      MVK: Min = 0.000000000E+00  Max = 2.165198909E-09  Sum = 1.163287266E-06
Species 166,    MVKDH: Min = 2.802596929E-45  Max = 5.864091435E-10  Sum = 3.251619773E-07
Species 167,    MVKHC: Min = 1.401298464E-45  Max = 1.249640391E-10  Sum = 9.036416770E-08
Species 168,   MVKHCB: Min = 4.203895393E-45  Max = 1.107842013E-10  Sum = 8.368510862E-08
Species 169,    MVKHP: Min = 2.802596929E-45  Max = 1.821255230E-10  Sum = 8.538111729E-08
Species 170,     MVKN: Min = 0.000000000E+00  Max = 2.654682550E-11  Sum = 1.160809848E-08
Species 171,    MVKPC: Min = 0.000000000E+00  Max = 4.826523556E-11  Sum = 2.767190566E-08
Species 172,      N2O: Min = 1.384627135E-10  Max = 3.299204536E-07  Sum = 4.240561649E-02
Species 173,     N2O5: Min = 0.000000000E+00  Max = 5.694130500E-09  Sum = 1.475596036E-05
Species 174,      NH3: Min = 4.946124289E-31  Max = 3.240911539E-08  Sum = 7.388919585E-06
Species 175,      NH4: Min = 2.421872856E-14  Max = 3.097608214E-08  Sum = 2.289713848E-05
Species 176,      NIT: Min = 0.000000000E+00  Max = 1.703945252E-08  Sum = 6.937470971E-06
Species 177,     NITs: Min = 1.234967162E-35  Max = 1.084478174E-09  Sum = 6.710719731E-07
Species 178,       NO: Min = 0.000000000E+00  Max = 1.598454169E-08  Sum = 9.948598017E-05
Species 179,      NO2: Min = 2.859641734E-21  Max = 2.283087142E-08  Sum = 1.071438019E-04
Species 180,      NO3: Min = 0.000000000E+00  Max = 6.242502071E-10  Sum = 1.151239644E-06
Species 181,    NPHEN: Min = 6.177482157E-33  Max = 2.201678943E-11  Sum = 4.607102699E-09
Species 182,   NPRNO3: Min = 2.134427657E-24  Max = 1.924268557E-11  Sum = 1.390703375E-07
Species 183,       O3: Min = 1.304738761E-09  Max = 1.040595907E-05  Sum = 1.386897415E-01
Species 184,     OClO: Min = 0.000000000E+00  Max = 1.085596266E-10  Sum = 2.078244705E-07
Species 185,     OCPI: Min = 1.584381904E-14  Max = 4.644613583E-08  Sum = 2.117630902E-05
Species 186,     OCPO: Min = 0.000000000E+00  Max = 2.476776118E-08  Sum = 2.411871492E-06
Species 187,      OCS: Min = 4.945284705E-25  Max = 5.000032055E-10  Sum = 6.131052942E-05
Species 188,      OIO: Min = 0.000000000E+00  Max = 3.723289038E-13  Sum = 2.413458100E-09
Species 189,      PAN: Min = 5.853418235E-20  Max = 1.620447332E-09  Sum = 8.140881619E-06
Species 190,      pFe: Min = 1.865084659E-17  Max = 3.103998308E-11  Sum = 2.549552924E-08
Species 191,     PHEN: Min = 4.528331861E-38  Max = 2.435706845E-11  Sum = 6.994735013E-09
Species 192,      PIP: Min = 0.000000000E+00  Max = 7.182464623E-10  Sum = 3.945324636E-07
Species 193,       PP: Min = 0.000000000E+00  Max = 2.244859160E-10  Sum = 1.761358561E-07
Species 194,      PPN: Min = 8.124429036E-20  Max = 9.891543140E-10  Sum = 2.580694854E-06
Species 195,   PROPNN: Min = 0.000000000E+00  Max = 2.463289572E-10  Sum = 3.383911817E-08
Species 196,     PRPE: Min = 0.000000000E+00  Max = 3.355245637E-09  Sum = 7.175830774E-07
Species 197,     PRPN: Min = 0.000000000E+00  Max = 1.021329549E-10  Sum = 8.773559657E-09
Species 198,     PYAC: Min = 0.000000000E+00  Max = 4.600232001E-11  Sum = 2.052002479E-08
Species 199,     R4N2: Min = 2.211842680E-33  Max = 1.287857876E-10  Sum = 1.433466679E-07
Species 200,      R4P: Min = 0.000000000E+00  Max = 8.902648063E-11  Sum = 5.380516086E-07
Species 201,     RA3P: Min = 7.387188361E-22  Max = 3.600062262E-11  Sum = 2.015127620E-07
Species 202,     RB3P: Min = 1.479958493E-21  Max = 1.239091885E-10  Sum = 5.515495900E-07
Species 203,     RCHO: Min = 1.164387979E-20  Max = 5.700765637E-09  Sum = 1.478329864E-06
Species 204,     RIPA: Min = 0.000000000E+00  Max = 1.349590550E-09  Sum = 4.101359821E-07
Species 205,     RIPB: Min = 0.000000000E+00  Max = 2.714073688E-10  Sum = 7.856192497E-08
Species 206,     RIPC: Min = 0.000000000E+00  Max = 5.237287340E-11  Sum = 1.262774418E-08
Species 207,     RIPD: Min = 0.000000000E+00  Max = 1.822404207E-11  Sum = 5.076891796E-09
Species 208,       RP: Min = 1.071004377E-20  Max = 7.945639979E-11  Sum = 3.951330996E-07
Species 209,     SALA: Min = 2.434502080E-28  Max = 2.760193851E-09  Sum = 1.339016762E-05
Species 210,   SALAAL: Min = 1.179689002E-27  Max = 1.776857550E-10  Sum = 1.619285399E-07
[...]
PHOTOLYSIS (RD_AOD): Opening /shared/ucl/depts/uptrop/uclgcfs/gcgrid/gcdata/ExtData/CHEM_INPUTS/FAST_JX/v2021-10/dust.dat
 dust RRTMG LUT interpolated from GADS (DAR 09/2013)                           
 V0.1 - contains Fast-J wavelengths but is the same as the original jv_spec.dat
PHOTOLYSIS (RD_PROF_NC): Opening /shared/ucl/depts/uptrop/uclgcfs/gcgrid/gcdata/ExtData/CHEM_INPUTS/FastJ_201204/fastj.jv_atms_dat.nc
%%%%%%%%%%%%%%%%%%%%%%%%%%%%%%%%%%%%%%%%%%%%%%%%%%%%%%%%%%%%%%%%%%%%%%%%%%%%%%%
%% Opening file  : fastj.jv_atms_dat.nc
%%  in directory : /shared/ucl/depts/uptrop/uclgcfs/gcgrid/gcdata/ExtData/CHEM_INPUTS/FastJ_201204/
%%
%% Successfully read T [K]
%% Successfully read O3 [ppm]
%% Successfully closed file!
%%%%%%%%%%%%%%%%%%%%%%%%%%%%%%%%%%%%%%%%%%%%%%%%%%%%%%%%%%%%%%%%%%%%%%%%%%%%%%%
 Wavelength optics read successfully
 N WAVELENGTHS:            1
 WAVELENGTH REQUESTED:   550.00000000000000     
 WAVELENGTH REQUIRED:           1
 *********************************
Using Aerosol type:   3        ABSRB
Using Aerosol type:  10        W_C08
Using Aerosol type:  14        Ice-I
Using Aerosol type:  15   Mdust 0.15
Using Aerosol type:  16   Mdust 0.25
Using Aerosol type:  17    Mdust 0.4
Using Aerosol type:  18    Mdust 0.8
Using Aerosol type:  19    Mdust 1.5
Using Aerosol type:  20    Mdust 2.5
Using Aerosol type:  21    Mdust 4.0
Using Aerosol type:  22     S00(dar)
Using Aerosol type:  23     S50(dar)
Using Aerosol type:  24     S70(dar)
Using Aerosol type:  25     S80(dar)
Using Aerosol type:  26     S90(dar)
Using Aerosol type:  29    BC00(rvm)
Using Aerosol type:  30    BC50(rvm)
Using Aerosol type:  31    BC70(rvm)
Using Aerosol type:  32    BC80(rvm)
Using Aerosol type:  33    BC90(rvm)
Using Aerosol type:  36    OC00(rvm)
Using Aerosol type:  37    OC50(rvm)
Using Aerosol type:  38    OC70(rvm)
Using Aerosol type:  39    OC80(rvm)
Using Aerosol type:  40    OC90(rvm)
Using Aerosol type:  43   SSa00(rvm)
Using Aerosol type:  44   SSa50(rvm)
Using Aerosol type:  45   SSa70(rvm)
Using Aerosol type:  46   SSa80(rvm)
Using Aerosol type:  47   SSa90(rvm)
Using Aerosol type:  50   SSc00(rvm)
Using Aerosol type:  51   SSc50(rvm)
Using Aerosol type:  52   SSc70(rvm)
Using Aerosol type:  53   SSc80(rvm)
Using Aerosol type:  54   SSc90(rvm)
Using Aerosol type:   1        RAYLE
Using Aerosol type:  14        Ice-I
===============================================================================
Photo rxn flags saved for use in PHOTRATE_ADJ:

RXN_O2     [ O2   + hv -> O + O         ]  =      1
RXN_O3_1   [ O3   + hv -> O2 + O        ]  =      2
RXN_O3_2a  [ O3   + hv -> O2 + O(1D) #1 ]  =    102
RXN_JNITSa [ NITS + hv -> HNO2          ]  =    130
RXN_JNITSb [ NITS + hv -> NO2           ]  =    131
RXN_JNITa  [ NIT  + hv -> HNO2          ]  =    132
RXN_JNITb  [ NIT  + hv -> NO2           ]  =    133
RXN_H2SO4  [ SO4  + hv -> SO2 + OH + OH ]  =    100
RXN_NO2    [ NO2  + hv -> NO + O        ]  =     11
===============================================================================
O2        :      1      141   1.0000
O3        :      2      143   1.0000
O3        :      3      120   1.0000
NO        :      6      115   1.0000
CH2O      :      7       23   1.0000
CH2O      :      8       23   1.0000
H2O2      :      9       45   1.0000
MP        :     10      102   1.0000
NO2       :     11      116   1.0000
NO3       :     12      117   0.8860
NO3       :     13      117   0.1140
N2O5      :     14      112   1.0000
HNO2      :     15       53   1.0000
HNO3      :     16       54   1.0000
HNO4      :     17       55   0.0500
HNO4      :     18       55   0.9500
ClNO3     :     19       33   1.0000
ClNO3     :     20       33   1.0000
ClNO2     :     21       32   1.0000
Cl2       :     22       30   1.0000
Br2       :     23        6   1.0000
HOCl      :     24       57   1.0000
OClO      :     25      121   1.0000
Cl2O2     :     26       31   1.0000
ClO       :     27       34   1.0000
BrO       :     28       10   1.0000
BrNO3     :     29        9   0.8500
BrNO3     :     30        9   0.1500
BrNO2     :     31        8   1.0000
HOBr      :     32       56   1.0000
BrCl      :     33        7   1.0000
OCS       :     34      122   1.0000
N2O       :     36      111   1.0000
CFC11     :     37       13   1.0000
CFC12     :     38       17   1.0000
CFC113    :     39       14   1.0000
CFC114    :     40       15   1.0000
CFC115    :     41       16   1.0000
CCl4      :     42       12   1.0000
CH3Cl     :     43       26   1.0000
CH3CCl3   :     44       25   1.0000
CH2Cl2    :     45       19   1.0000
HCFC22    :     46       51   1.0000
HCFC123   :     47       48   1.0000
HCFC141b  :     48       49   1.0000
HCFC142b  :     49       50   1.0000
CH3Br     :     50       24   1.0000
H1211     :     51       42   1.0000
H1301     :     53       43   1.0000
H2402     :     54       44   1.0000
CH2Br2    :     55       18   1.0000
CHBr3     :     56       28   1.0000
PAN       :     59      124   1.0000
R4N2      :     60      130   1.0000
ALD2      :     61        2   1.0000
ALD2      :     62        2   1.0000
MVK       :     63      105   0.6000
MVK       :     64      105   0.2000
MVK       :     65      105   0.2000
MACR      :     66       90   1.0000
MACR      :     67       90   0.0000
GLYC      :     68       40   1.0000
MEK       :     69       97   1.0000
RCHO      :     70      134   1.0000
MGLY      :     71       99   1.0000
GLYX      :     72       41   1.0000
GLYX      :     73       41   1.0000
GLYX      :     74       41   1.0000
HAC       :     75       46   0.6000
ACET      :     76        1   1.0000
ACET      :     77        1   1.0000
IDN       :     78       76   1.0000
PRPN      :     79      128   1.0000
ETP       :     80       39   0.5000
RA3P      :     81      132   1.0000
RB3P      :     82      133   1.0000
R4P       :     83      131   1.0000
PP        :     84      126   1.0000
RP        :     85      139   1.0000
HMHP      :     86       52   1.0000
HPETHNL   :     87       64   1.0000
PYAC      :     88      129   1.0000
PROPNN    :     89      127   1.0000
MVKHC     :     90      106   1.0000
MVKHCB    :     91      107   1.0000
MVKHP     :     92      108   1.0000
MVKPC     :     93      110   1.0000
MCRENOL   :     94       93   1.0000
MCRHP     :     95       96   1.0000
MACR1OOH  :     96       91   1.0000
ATOOH     :     97        3   1.0000
R4N2      :     98      130   1.0000
MAP       :     99       92   1.0000
SO4       :    100      140   1.0000
ClOO      :    101       35   1.0000
O3        :    102      142   1.0000
MPN       :    103      104   0.0500
MPN       :    104      104   0.9500
PIP       :    105      125   1.0000
ICN       :    106       71   1.0000
ETHLN     :    107       36   1.0000
MVKN      :    108      109   1.0000
MCRHN     :    109       94   1.0000
MCRHNB    :    110       95   1.0000
MONITS    :    111      100   1.0000
MONITU    :    112      101   1.0000
HONIT     :    113       59   1.0000
I2        :    114       65   1.0000
HOI       :    115       58   1.0000
IO        :    116       84   1.0000
OIO       :    117      123   1.0000
INO       :    118       81   1.0000
IONO      :    119       85   1.0000
IONO2     :    120       86   1.0000
I2O2      :    121       66   1.0000
CH3I      :    122       27   1.0000
CH2I2     :    123       20   1.0000
CH2ICl    :    124       22   1.0000
CH2IBr    :    125       21   1.0000
I2O4      :    126       68   1.0000
I2O3      :    127       67   1.0000
IBr       :    128       69   1.0000
ICl       :    129       70   1.0000
NITs      :    130      114   1.0000
NITs      :    131      114   1.0000
NIT       :    132      113   1.0000
NIT       :    133      113   1.0000
MENO3     :    134       98   1.0000
ETNO3     :    135       38   1.0000
IPRNO3    :    136       87   1.0000
NPRNO3    :    137      119   1.0000
RIPA      :    138      135   1.0000
RIPB      :    139      136   1.0000
RIPC      :    140      137   1.0000
RIPD      :    141      138   1.0000
HPALD1    :    142       60   1.0000
HPALD2    :    143       61   1.0000
HPALD3    :    144       62   1.0000
HPALD4    :    145       63   1.0000
IHN1      :    146       77   1.0000
IHN2      :    147       78   1.0000
IHN3      :    148       79   1.0000
IHN4      :    149       80   1.0000
INPB      :    150       82   1.0000
INPD      :    151       83   1.0000
INPD      :    152       83   1.0000
ICPDH     :    153       72   1.0000
ICPDH     :    154       72   1.0000
IDHDP     :    155       74   1.0000
IDHPE     :    156       75   1.0000
IDCHP     :    157       73   1.0000
ITHN      :    158       89   1.0000
ITHN      :    159       89   1.0000
ITCN      :    160       88   1.0000
ITCN      :    161       88   1.0000
ETHP      :    162       37   1.0000
BALD      :    163        4   0.0600
BZCO3H    :    164       11   1.0000
BENZP     :    165        5   1.0000
NPHEN     :    166      118   1.0000
UCX (SFCMR_READ): Opening /shared/ucl/depts/uptrop/uclgcfs/gcgrid/gcdata/ExtData/CHEM_INPUTS/UCX_201403/NoonTime/Grid4x5/InitCFC_O_01.dat
UCX (SFCMR_READ): Opening /shared/ucl/depts/uptrop/uclgcfs/gcgrid/gcdata/ExtData/CHEM_INPUTS/UCX_201403/NoonTime/Grid4x5/InitCFC_O1D_01.dat
UCX (SFCMR_READ): Opening /shared/ucl/depts/uptrop/uclgcfs/gcgrid/gcdata/ExtData/CHEM_INPUTS/UCX_201403/NoonTime/Grid4x5/InitCFC_JNO_01.dat
UCX (SFCMR_READ): Opening /shared/ucl/depts/uptrop/uclgcfs/gcgrid/gcdata/ExtData/CHEM_INPUTS/UCX_201403/NoonTime/Grid4x5/InitCFC_JNO2_01.dat
UCX (SFCMR_READ): Opening /shared/ucl/depts/uptrop/uclgcfs/gcgrid/gcdata/ExtData/CHEM_INPUTS/UCX_201403/NoonTime/Grid4x5/InitCFC_JNO3_01.dat
UCX (SFCMR_READ): Opening /shared/ucl/depts/uptrop/uclgcfs/gcgrid/gcdata/ExtData/CHEM_INPUTS/UCX_201403/NoonTime/Grid4x5/InitCFC_JN2O_01.dat
UCX (SFCMR_READ): Opening /shared/ucl/depts/uptrop/uclgcfs/gcgrid/gcdata/ExtData/CHEM_INPUTS/UCX_201403/NoonTime/Grid4x5/InitCFC_O_02.dat
UCX (SFCMR_READ): Opening /shared/ucl/depts/uptrop/uclgcfs/gcgrid/gcdata/ExtData/CHEM_INPUTS/UCX_201403/NoonTime/Grid4x5/InitCFC_O1D_02.dat
UCX (SFCMR_READ): Opening /shared/ucl/depts/uptrop/uclgcfs/gcgrid/gcdata/ExtData/CHEM_INPUTS/UCX_201403/NoonTime/Grid4x5/InitCFC_JNO_02.dat
UCX (SFCMR_READ): Opening /shared/ucl/depts/uptrop/uclgcfs/gcgrid/gcdata/ExtData/CHEM_INPUTS/UCX_201403/NoonTime/Grid4x5/InitCFC_JNO2_02.dat
UCX (SFCMR_READ): Opening /shared/ucl/depts/uptrop/uclgcfs/gcgrid/gcdata/ExtData/CHEM_INPUTS/UCX_201403/NoonTime/Grid4x5/InitCFC_JNO3_02.dat
UCX (SFCMR_READ): Opening /shared/ucl/depts/uptrop/uclgcfs/gcgrid/gcdata/ExtData/CHEM_INPUTS/UCX_201403/NoonTime/Grid4x5/InitCFC_JN2O_02.dat
UCX (SFCMR_READ): Opening /shared/ucl/depts/uptrop/uclgcfs/gcgrid/gcdata/ExtData/CHEM_INPUTS/UCX_201403/NoonTime/Grid4x5/InitCFC_O_03.dat
UCX (SFCMR_READ): Opening /shared/ucl/depts/uptrop/uclgcfs/gcgrid/gcdata/ExtData/CHEM_INPUTS/UCX_201403/NoonTime/Grid4x5/InitCFC_O1D_03.dat
UCX (SFCMR_READ): Opening /shared/ucl/depts/uptrop/uclgcfs/gcgrid/gcdata/ExtData/CHEM_INPUTS/UCX_201403/NoonTime/Grid4x5/InitCFC_JNO_03.dat
UCX (SFCMR_READ): Opening /shared/ucl/depts/uptrop/uclgcfs/gcgrid/gcdata/ExtData/CHEM_INPUTS/UCX_201403/NoonTime/Grid4x5/InitCFC_JNO2_03.dat
UCX (SFCMR_READ): Opening /shared/ucl/depts/uptrop/uclgcfs/gcgrid/gcdata/ExtData/CHEM_INPUTS/UCX_201403/NoonTime/Grid4x5/InitCFC_JNO3_03.dat
UCX (SFCMR_READ): Opening /shared/ucl/depts/uptrop/uclgcfs/gcgrid/gcdata/ExtData/CHEM_INPUTS/UCX_201403/NoonTime/Grid4x5/InitCFC_JN2O_03.dat
UCX (SFCMR_READ): Opening /shared/ucl/depts/uptrop/uclgcfs/gcgrid/gcdata/ExtData/CHEM_INPUTS/UCX_201403/NoonTime/Grid4x5/InitCFC_O_04.dat
UCX (SFCMR_READ): Opening /shared/ucl/depts/uptrop/uclgcfs/gcgrid/gcdata/ExtData/CHEM_INPUTS/UCX_201403/NoonTime/Grid4x5/InitCFC_O1D_04.dat
UCX (SFCMR_READ): Opening /shared/ucl/depts/uptrop/uclgcfs/gcgrid/gcdata/ExtData/CHEM_INPUTS/UCX_201403/NoonTime/Grid4x5/InitCFC_JNO_04.dat
UCX (SFCMR_READ): Opening /shared/ucl/depts/uptrop/uclgcfs/gcgrid/gcdata/ExtData/CHEM_INPUTS/UCX_201403/NoonTime/Grid4x5/InitCFC_JNO2_04.dat
UCX (SFCMR_READ): Opening /shared/ucl/depts/uptrop/uclgcfs/gcgrid/gcdata/ExtData/CHEM_INPUTS/UCX_201403/NoonTime/Grid4x5/InitCFC_JNO3_04.dat
UCX (SFCMR_READ): Opening /shared/ucl/depts/uptrop/uclgcfs/gcgrid/gcdata/ExtData/CHEM_INPUTS/UCX_201403/NoonTime/Grid4x5/InitCFC_JN2O_04.dat
UCX (SFCMR_READ): Opening /shared/ucl/depts/uptrop/uclgcfs/gcgrid/gcdata/ExtData/CHEM_INPUTS/UCX_201403/NoonTime/Grid4x5/InitCFC_O_05.dat
UCX (SFCMR_READ): Opening /shared/ucl/depts/uptrop/uclgcfs/gcgrid/gcdata/ExtData/CHEM_INPUTS/UCX_201403/NoonTime/Grid4x5/InitCFC_O1D_05.dat
UCX (SFCMR_READ): Opening /shared/ucl/depts/uptrop/uclgcfs/gcgrid/gcdata/ExtData/CHEM_INPUTS/UCX_201403/NoonTime/Grid4x5/InitCFC_JNO_05.dat
UCX (SFCMR_READ): Opening /shared/ucl/depts/uptrop/uclgcfs/gcgrid/gcdata/ExtData/CHEM_INPUTS/UCX_201403/NoonTime/Grid4x5/InitCFC_JNO2_05.dat
UCX (SFCMR_READ): Opening /shared/ucl/depts/uptrop/uclgcfs/gcgrid/gcdata/ExtData/CHEM_INPUTS/UCX_201403/NoonTime/Grid4x5/InitCFC_JNO3_05.dat
UCX (SFCMR_READ): Opening /shared/ucl/depts/uptrop/uclgcfs/gcgrid/gcdata/ExtData/CHEM_INPUTS/UCX_201403/NoonTime/Grid4x5/InitCFC_JN2O_05.dat
UCX (SFCMR_READ): Opening /shared/ucl/depts/uptrop/uclgcfs/gcgrid/gcdata/ExtData/CHEM_INPUTS/UCX_201403/NoonTime/Grid4x5/InitCFC_O_06.dat
UCX (SFCMR_READ): Opening /shared/ucl/depts/uptrop/uclgcfs/gcgrid/gcdata/ExtData/CHEM_INPUTS/UCX_201403/NoonTime/Grid4x5/InitCFC_O1D_06.dat
UCX (SFCMR_READ): Opening /shared/ucl/depts/uptrop/uclgcfs/gcgrid/gcdata/ExtData/CHEM_INPUTS/UCX_201403/NoonTime/Grid4x5/InitCFC_JNO_06.dat
UCX (SFCMR_READ): Opening /shared/ucl/depts/uptrop/uclgcfs/gcgrid/gcdata/ExtData/CHEM_INPUTS/UCX_201403/NoonTime/Grid4x5/InitCFC_JNO2_06.dat
UCX (SFCMR_READ): Opening /shared/ucl/depts/uptrop/uclgcfs/gcgrid/gcdata/ExtData/CHEM_INPUTS/UCX_201403/NoonTime/Grid4x5/InitCFC_JNO3_06.dat
UCX (SFCMR_READ): Opening /shared/ucl/depts/uptrop/uclgcfs/gcgrid/gcdata/ExtData/CHEM_INPUTS/UCX_201403/NoonTime/Grid4x5/InitCFC_JN2O_06.dat
UCX (SFCMR_READ): Opening /shared/ucl/depts/uptrop/uclgcfs/gcgrid/gcdata/ExtData/CHEM_INPUTS/UCX_201403/NoonTime/Grid4x5/InitCFC_O_07.dat
UCX (SFCMR_READ): Opening /shared/ucl/depts/uptrop/uclgcfs/gcgrid/gcdata/ExtData/CHEM_INPUTS/UCX_201403/NoonTime/Grid4x5/InitCFC_O1D_07.dat
UCX (SFCMR_READ): Opening /shared/ucl/depts/uptrop/uclgcfs/gcgrid/gcdata/ExtData/CHEM_INPUTS/UCX_201403/NoonTime/Grid4x5/InitCFC_JNO_07.dat
UCX (SFCMR_READ): Opening /shared/ucl/depts/uptrop/uclgcfs/gcgrid/gcdata/ExtData/CHEM_INPUTS/UCX_201403/NoonTime/Grid4x5/InitCFC_JNO2_07.dat
UCX (SFCMR_READ): Opening /shared/ucl/depts/uptrop/uclgcfs/gcgrid/gcdata/ExtData/CHEM_INPUTS/UCX_201403/NoonTime/Grid4x5/InitCFC_JNO3_07.dat
UCX (SFCMR_READ): Opening /shared/ucl/depts/uptrop/uclgcfs/gcgrid/gcdata/ExtData/CHEM_INPUTS/UCX_201403/NoonTime/Grid4x5/InitCFC_JN2O_07.dat
UCX (SFCMR_READ): Opening /shared/ucl/depts/uptrop/uclgcfs/gcgrid/gcdata/ExtData/CHEM_INPUTS/UCX_201403/NoonTime/Grid4x5/InitCFC_O_08.dat
UCX (SFCMR_READ): Opening /shared/ucl/depts/uptrop/uclgcfs/gcgrid/gcdata/ExtData/CHEM_INPUTS/UCX_201403/NoonTime/Grid4x5/InitCFC_O1D_08.dat
UCX (SFCMR_READ): Opening /shared/ucl/depts/uptrop/uclgcfs/gcgrid/gcdata/ExtData/CHEM_INPUTS/UCX_201403/NoonTime/Grid4x5/InitCFC_JNO_08.dat
UCX (SFCMR_READ): Opening /shared/ucl/depts/uptrop/uclgcfs/gcgrid/gcdata/ExtData/CHEM_INPUTS/UCX_201403/NoonTime/Grid4x5/InitCFC_JNO2_08.dat
UCX (SFCMR_READ): Opening /shared/ucl/depts/uptrop/uclgcfs/gcgrid/gcdata/ExtData/CHEM_INPUTS/UCX_201403/NoonTime/Grid4x5/InitCFC_JNO3_08.dat
UCX (SFCMR_READ): Opening /shared/ucl/depts/uptrop/uclgcfs/gcgrid/gcdata/ExtData/CHEM_INPUTS/UCX_201403/NoonTime/Grid4x5/InitCFC_JN2O_08.dat
UCX (SFCMR_READ): Opening /shared/ucl/depts/uptrop/uclgcfs/gcgrid/gcdata/ExtData/CHEM_INPUTS/UCX_201403/NoonTime/Grid4x5/InitCFC_O_09.dat
UCX (SFCMR_READ): Opening /shared/ucl/depts/uptrop/uclgcfs/gcgrid/gcdata/ExtData/CHEM_INPUTS/UCX_201403/NoonTime/Grid4x5/InitCFC_O1D_09.dat
UCX (SFCMR_READ): Opening /shared/ucl/depts/uptrop/uclgcfs/gcgrid/gcdata/ExtData/CHEM_INPUTS/UCX_201403/NoonTime/Grid4x5/InitCFC_JNO_09.dat
UCX (SFCMR_READ): Opening /shared/ucl/depts/uptrop/uclgcfs/gcgrid/gcdata/ExtData/CHEM_INPUTS/UCX_201403/NoonTime/Grid4x5/InitCFC_JNO2_09.dat
UCX (SFCMR_READ): Opening /shared/ucl/depts/uptrop/uclgcfs/gcgrid/gcdata/ExtData/CHEM_INPUTS/UCX_201403/NoonTime/Grid4x5/InitCFC_JNO3_09.dat
UCX (SFCMR_READ): Opening /shared/ucl/depts/uptrop/uclgcfs/gcgrid/gcdata/ExtData/CHEM_INPUTS/UCX_201403/NoonTime/Grid4x5/InitCFC_JN2O_09.dat
UCX (SFCMR_READ): Opening /shared/ucl/depts/uptrop/uclgcfs/gcgrid/gcdata/ExtData/CHEM_INPUTS/UCX_201403/NoonTime/Grid4x5/InitCFC_O_10.dat
UCX (SFCMR_READ): Opening /shared/ucl/depts/uptrop/uclgcfs/gcgrid/gcdata/ExtData/CHEM_INPUTS/UCX_201403/NoonTime/Grid4x5/InitCFC_O1D_10.dat
UCX (SFCMR_READ): Opening /shared/ucl/depts/uptrop/uclgcfs/gcgrid/gcdata/ExtData/CHEM_INPUTS/UCX_201403/NoonTime/Grid4x5/InitCFC_JNO_10.dat
UCX (SFCMR_READ): Opening /shared/ucl/depts/uptrop/uclgcfs/gcgrid/gcdata/ExtData/CHEM_INPUTS/UCX_201403/NoonTime/Grid4x5/InitCFC_JNO2_10.dat
UCX (SFCMR_READ): Opening /shared/ucl/depts/uptrop/uclgcfs/gcgrid/gcdata/ExtData/CHEM_INPUTS/UCX_201403/NoonTime/Grid4x5/InitCFC_JNO3_10.dat
UCX (SFCMR_READ): Opening /shared/ucl/depts/uptrop/uclgcfs/gcgrid/gcdata/ExtData/CHEM_INPUTS/UCX_201403/NoonTime/Grid4x5/InitCFC_JN2O_10.dat
UCX (SFCMR_READ): Opening /shared/ucl/depts/uptrop/uclgcfs/gcgrid/gcdata/ExtData/CHEM_INPUTS/UCX_201403/NoonTime/Grid4x5/InitCFC_O_11.dat
UCX (SFCMR_READ): Opening /shared/ucl/depts/uptrop/uclgcfs/gcgrid/gcdata/ExtData/CHEM_INPUTS/UCX_201403/NoonTime/Grid4x5/InitCFC_O1D_11.dat
UCX (SFCMR_READ): Opening /shared/ucl/depts/uptrop/uclgcfs/gcgrid/gcdata/ExtData/CHEM_INPUTS/UCX_201403/NoonTime/Grid4x5/InitCFC_JNO_11.dat
UCX (SFCMR_READ): Opening /shared/ucl/depts/uptrop/uclgcfs/gcgrid/gcdata/ExtData/CHEM_INPUTS/UCX_201403/NoonTime/Grid4x5/InitCFC_JNO2_11.dat
UCX (SFCMR_READ): Opening /shared/ucl/depts/uptrop/uclgcfs/gcgrid/gcdata/ExtData/CHEM_INPUTS/UCX_201403/NoonTime/Grid4x5/InitCFC_JNO3_11.dat
UCX (SFCMR_READ): Opening /shared/ucl/depts/uptrop/uclgcfs/gcgrid/gcdata/ExtData/CHEM_INPUTS/UCX_201403/NoonTime/Grid4x5/InitCFC_JN2O_11.dat
UCX (SFCMR_READ): Opening /shared/ucl/depts/uptrop/uclgcfs/gcgrid/gcdata/ExtData/CHEM_INPUTS/UCX_201403/NoonTime/Grid4x5/InitCFC_O_12.dat
UCX (SFCMR_READ): Opening /shared/ucl/depts/uptrop/uclgcfs/gcgrid/gcdata/ExtData/CHEM_INPUTS/UCX_201403/NoonTime/Grid4x5/InitCFC_O1D_12.dat
UCX (SFCMR_READ): Opening /shared/ucl/depts/uptrop/uclgcfs/gcgrid/gcdata/ExtData/CHEM_INPUTS/UCX_201403/NoonTime/Grid4x5/InitCFC_JNO_12.dat
UCX (SFCMR_READ): Opening /shared/ucl/depts/uptrop/uclgcfs/gcgrid/gcdata/ExtData/CHEM_INPUTS/UCX_201403/NoonTime/Grid4x5/InitCFC_JNO2_12.dat
UCX (SFCMR_READ): Opening /shared/ucl/depts/uptrop/uclgcfs/gcgrid/gcdata/ExtData/CHEM_INPUTS/UCX_201403/NoonTime/Grid4x5/InitCFC_JNO3_12.dat
UCX (SFCMR_READ): Opening /shared/ucl/depts/uptrop/uclgcfs/gcgrid/gcdata/ExtData/CHEM_INPUTS/UCX_201403/NoonTime/Grid4x5/InitCFC_JN2O_12.dat

********************************************
* B e g i n   T i m e   S t e p p i n g !! *
********************************************

---> DATE: 2020/01/01  UTC: 00:00
 HEMCO already called for this timestep. Returning.
 Getting CH4 boundary conditions in GEOS-Chem from :NOAA_GMD_CH4
HEMCO (VOLCANO): Opening /shared/ucl/depts/uptrop/uclgcfs/gcgrid/gcdata/ExtData/HEMCO/VOLCANO/v2021-09/2020/01/so2_volcanic_emissions_Carns.20200101.rc
Radii:   0.138E-04     0.361E-05     0.110E-04     0.237E-04     0.175E-03     0.100E+00     0.100E+00     0.000E+00
Areas:   0.103E-06     0.155E-09     0.251E-08     0.274E-07     0.831E-09     0.000E+00     0.000E+00     0.000E+00
Radii:   0.179E-04     0.473E-05     0.124E-04     0.294E-04     0.218E-03     0.100E+00     0.100E+00     0.000E+00
Areas:   0.172E-06     0.291E-09     0.344E-08     0.468E-07     0.137E-08     0.000E+00     0.000E+00     0.000E+00