*************   S T A R T I N G   G E O S - C H E M   *************

===> Mode of operation         : GEOS-Chem "Classic"
===> GEOS-Chem version         : 14.3.0
===> Compiler                  : GNU Fortran compiler (aka gfortran)
===> Flexible precision set to : 8-byte real (aka REAL*8)
===> Parallelization w/ OpenMP : ON
===> Binary punch diagnostics  : OFF
===> netCDF diagnostics        : ON
===> netCDF file compression   : SUPPORTED
===> Luo et al (2019) wetdep?  : OFF

===> SIMULATION START TIME: 2024/02/19 20:47 <===

===============================================================================
G E O S - C H E M   U S E R   I N P U T

READ_INPUT_FILE: Opening ./geoschem_config.yml

SIMULATION SETTINGS
-------------------
Simulation name             : fullchem
CHEM_INPUTS directory       : /shared/ucl/depts/uptrop/uclgcfs/gcgrid/gcdata/ExtData/CHEM_INPUTS/
Species database file       : ./species_database.yml
Turn on verbose output      :     F
Verbose output printed on   : root core only
Start time of run           : 20200105 000000
End time of run             : 20200205 000000
Data Directory              : /shared/ucl/depts/uptrop/uclgcfs/gcgrid/gcdata/ExtData/
Meteorology field           : MERRA2
Turn on GEOS-Chem timers    :     F

GRID SETTINGS
------------
Grid resolution             : 4.0x5.0
Min/max longitude           :  -180.0000   180.0000
Min/max latitude            :   -90.0000    90.0000
X grid dimension            :    72
Y grid dimension            :    46
Z grid dimension            :    47
Use half-sized polar boxes? :     T
Center on Intl Date Line?   :     T
Is this a nested-grid sim?  :     F
 --> Buffer zone (N S E W ) :     0    0    0    0

TIMESTEP SETTINGS
-----------------
Transport/Convection [sec]  :   600
Chemistry/Emissions  [sec]  :  1200
RRTMG rad transfer   [sec]  : 10800

TRANSPORT SETTINGS
------------------
Turn on transport?          :     T
Let TPCORE Fill negatives?  :     T
IORD, JORD, KORD for TPCORE?:     3    3    7

CONVECTION SETTINGS
-------------------
Turn on cloud convection?   :     T

PBL MIXING SETTINGS
-------------------
Turn on PBL mixing?         :     T
Turn on non-local PBL?      :     T

AEROSOL SETTINGS
----------------
Online SULFATE AEROSOLS?    :     T
Include Alumina AEROSOLS?   :     T
Metal catalyzed SO2 ox.?    :     T
Online CARBON AEROSOLS?     :     T
Brown Carbon Aerosol?       :     F
BC Absorption Enhancement?  :     T
Hydrophilic BC AE factor    :     1.50
Hydrophobic BC AE factor    :     1.00
Online COMPLEX SOA?         :     F
Semivolatile POA?           :     F
Online DUST AEROSOLS?       :     T
Acid uptake on dust?        :     F
Online SEA SALT AEROSOLS?   :     T
Accum  SEA SALT radii [um]  :     0.01 -     0.50
Coarse SEA SALT radii [um]  :     0.50 -     8.00
MARINE ORGANIC AEROSOLS?    :     F
Settle strat. aerosols?     :     T
Online SOLID PSC aerosols?  :     T
Allow hom. NAT nucleation?  :     F
NAT supercooling requirement:     3.00K
Ice supersaturation req.    :    20.00K
Perform PSC het. chemistry? :     T
Use strat. aerosol OD?      :     T

DRY DEPOSITION SETTINGS
-----------------------
Turn on dry deposition?     :     T
Dry dep over full PBL?      :     F
Turn on CO2 effect?         :     F
CO2 level                   :   600.00
CO2 reference level         :   380.00
RIX scaling factor          :     1.00

WET DEPOSITION SETTINGS
-----------------------
Turn on wet deposition?     :     T

CHEMISTRY SETTINGS
------------------
Turn on chemistry?          :     T
Use linear. mesospheric chem:     T
 => Use Linoz for O3?       :     T
Online strat. H2O?          :     T
Use robust strat H2O BC?    :     T
GAMMA HO2                   : 0.20
Use auto-reduce solver?     :     F
Use target species threshold:     T
OH tuning factor:             5.0E-05
NO2 tuning factor:            1.0E-04
Keep halogen spec. active?  :     F
Use append in auto-reduce?  :     F

PHOTOLYSIS SETTINGS
-------------------
Turn on photolysis?         :     F
FAST-JX input directory     : /shared/ucl/depts/uptrop/uclgcfs/gcgrid/gcdata/ExtData/CHEM_INPUTS/FAST_JX/v2021-10/
Cloud-J input directory     : /home/ucfacb0/Scratch/CLOUD_J/
Use online ozone?           :     T
Use ozone from met?         :     T
Use TOMS/SBUV ozone?        :     F
Photolyse nitrate aerosol?  :     T
JNITs scaling of JHNO3      :  100.000
JNIT scaling of JHNO3       :  100.000
JNIT(s) channel A (HONO)    :   66.667
JNIT(s) channel B (NO2)     :   33.333

NOTE ABOUT OVERHEAD O3 FOR FAST-JX:
 Online O3 from GEOS-Chem will be used
 to weight the O3 column within the
 chemistry grid and O3 from met or TOMS
 will be used outside the chemistry grid.

RRTMG SETTINGS
--------------
AOD output wavelength (nm)  :   550.0
Turn on radiation?          :     F
Consider longwave?          :     F
Consider shortwave?         :     F
Clear-sky flux?             :     F
All-sky flux?               :     F
CO2 VMR in ppmv             :     T
Fixed dyn. heat. assumption?:     F
 --> Seasonal evolution?    :     F
 --> Extend to TOA?         :     F
 --> Read in dyn. heating?  :     F

OBSPACK SETTINGS
----------------
Turn on ObsPack diagnostic? :     F
Suppress logfile output?    :     F
ObsPack input file          : ./obspack_co2_1_OCO2MIP_2018-11-28.YYYYMMDD.nc
ObsPack output file         : ./OutputDir/GEOSChem.ObsPack.YYYYMMDD_hhmmz.nc4

PLANEFLIGHT DIAGNOSTIC SETTINGS
-------------------------------
Turn on planeflight diag?   :     F
Flight track input file     : Planeflight.dat.YYYYMMDD
Output file name            : plane.log.YYYYMMDD

TIMESTEPS SETTINGS
------------------
Chemistry  Timestep [sec]   :   1200
Convection Timestep [sec]   :    600
Dynamics   Timestep [sec]   :    600
Emission   Timestep [sec]   :   1200
Unit Conv  Timestep [sec]   :    600
Diagnostic Timestep [sec]   :   1200
Radiation  Timestep [sec]   :  10800

%%%%%%%%%%%%%%% GLOBAL GRID %%%%%%%%%%%%%%%

Grid box longitude centers [degrees]: 
-180.00000 -175.00000 -170.00000 -165.00000 -160.00000 -155.00000 -150.00000
-145.00000 -140.00000 -135.00000 -130.00000 -125.00000 -120.00000 -115.00000
-110.00000 -105.00000 -100.00000  -95.00000  -90.00000  -85.00000  -80.00000
 -75.00000  -70.00000  -65.00000  -60.00000  -55.00000  -50.00000  -45.00000
 -40.00000  -35.00000  -30.00000  -25.00000  -20.00000  -15.00000  -10.00000
  -5.00000    0.00000    5.00000   10.00000   15.00000   20.00000   25.00000
  30.00000   35.00000   40.00000   45.00000   50.00000   55.00000   60.00000
  65.00000   70.00000   75.00000   80.00000   85.00000   90.00000   95.00000
 100.00000  105.00000  110.00000  115.00000  120.00000  125.00000  130.00000
 135.00000  140.00000  145.00000  150.00000  155.00000  160.00000  165.00000
 170.00000  175.00000

Grid box latitude centers [degrees]: 
 -89.00000  -86.00000  -82.00000  -78.00000  -74.00000  -70.00000  -66.00000
 -62.00000  -58.00000  -54.00000  -50.00000  -46.00000  -42.00000  -38.00000
 -34.00000  -30.00000  -26.00000  -22.00000  -18.00000  -14.00000  -10.00000
  -6.00000   -2.00000    2.00000    6.00000   10.00000   14.00000   18.00000
  22.00000   26.00000   30.00000   34.00000   38.00000   42.00000   46.00000
  50.00000   54.00000   58.00000   62.00000   66.00000   70.00000   74.00000
  78.00000   82.00000   86.00000   89.00000

%%%%%%%%%%%% USER-DEFINED GRID %%%%%%%%%%%%

  XMinOffset :            0
  XMaxOffset :           71
  YMinOffset :            0
  YMaxOffset :           45


Grid box longitude centers [degrees]: 
-180.00000 -175.00000 -170.00000 -165.00000 -160.00000 -155.00000 -150.00000
-145.00000 -140.00000 -135.00000 -130.00000 -125.00000 -120.00000 -115.00000
-110.00000 -105.00000 -100.00000  -95.00000  -90.00000  -85.00000  -80.00000
 -75.00000  -70.00000  -65.00000  -60.00000  -55.00000  -50.00000  -45.00000
 -40.00000  -35.00000  -30.00000  -25.00000  -20.00000  -15.00000  -10.00000
  -5.00000    0.00000    5.00000   10.00000   15.00000   20.00000   25.00000
  30.00000   35.00000   40.00000   45.00000   50.00000   55.00000   60.00000
  65.00000   70.00000   75.00000   80.00000   85.00000   90.00000   95.00000
 100.00000  105.00000  110.00000  115.00000  120.00000  125.00000  130.00000
 135.00000  140.00000  145.00000  150.00000  155.00000  160.00000  165.00000
 170.00000  175.00000

Grid box longitude edges [degrees]: 
-182.50000 -177.50000 -172.50000 -167.50000 -162.50000 -157.50000 -152.50000
-147.50000 -142.50000 -137.50000 -132.50000 -127.50000 -122.50000 -117.50000
-112.50000 -107.50000 -102.50000  -97.50000  -92.50000  -87.50000  -82.50000
 -77.50000  -72.50000  -67.50000  -62.50000  -57.50000  -52.50000  -47.50000
 -42.50000  -37.50000  -32.50000  -27.50000  -22.50000  -17.50000  -12.50000
  -7.50000   -2.50000    2.50000    7.50000   12.50000   17.50000   22.50000
  27.50000   32.50000   37.50000   42.50000   47.50000   52.50000   57.50000
  62.50000   67.50000   72.50000   77.50000   82.50000   87.50000   92.50000
  97.50000  102.50000  107.50000  112.50000  117.50000  122.50000  127.50000
 132.50000  137.50000  142.50000  147.50000  152.50000  157.50000  162.50000
 167.50000  172.50000  177.50000

Grid box latitude centers [degrees]: 
 -89.00000  -86.00000  -82.00000  -78.00000  -74.00000  -70.00000  -66.00000
 -62.00000  -58.00000  -54.00000  -50.00000  -46.00000  -42.00000  -38.00000
 -34.00000  -30.00000  -26.00000  -22.00000  -18.00000  -14.00000  -10.00000
  -6.00000   -2.00000    2.00000    6.00000   10.00000   14.00000   18.00000
  22.00000   26.00000   30.00000   34.00000   38.00000   42.00000   46.00000
  50.00000   54.00000   58.00000   62.00000   66.00000   70.00000   74.00000
  78.00000   82.00000   86.00000   89.00000

Grid box latitude edges [degrees]: 
 -90.00000  -88.00000  -84.00000  -80.00000  -76.00000  -72.00000  -68.00000
 -64.00000  -60.00000  -56.00000  -52.00000  -48.00000  -44.00000  -40.00000
 -36.00000  -32.00000  -28.00000  -24.00000  -20.00000  -16.00000  -12.00000
  -8.00000   -4.00000    0.00000    4.00000    8.00000   12.00000   16.00000
  20.00000   24.00000   28.00000   32.00000   36.00000   40.00000   44.00000
  48.00000   52.00000   56.00000   60.00000   64.00000   68.00000   72.00000
  76.00000   80.00000   84.00000   88.00000   90.00000

SIN( grid box latitude edges )
  -1.00000   -0.99939   -0.99452   -0.98481   -0.97030   -0.95106   -0.92718
  -0.89879   -0.86603   -0.82904   -0.78801   -0.74314   -0.69466   -0.64279
  -0.58779   -0.52992   -0.46947   -0.40674   -0.34202   -0.27564   -0.20791
  -0.13917   -0.06976    0.00000    0.06976    0.13917    0.20791    0.27564
   0.34202    0.40674    0.46947    0.52992    0.58779    0.64279    0.69466
   0.74314    0.78801    0.82904    0.86603    0.89879    0.92718    0.95106
   0.97030    0.98481    0.99452    0.99939    1.00000
 bucket   :            1  size            1
 key      : BALD
 value    :           11
 bucket   :            3  size            2
 key      : HPALD4
 value    :          102
 key      : IEPOXBOO
 value    :          286
 bucket   :            5  size            1
 key      : MCROHOO
 value    :          277
 bucket   :            6  size            1
 key      : HCFC22
 value    :           85
 bucket   :            8  size            1
 key      : PCO
 value    :          244
 bucket   :            9  size            1
 key      : HPALD2
 value    :          100
 bucket   :           10  size            1
 key      : MCT
 value    :          151
 bucket   :           11  size            1
 key      : LXRO2N
 value    :          238
 bucket   :           12  size            1
 key      : RA3P
 value    :          201
 bucket   :           13  size            2
 key      : N2O
 value    :          172
 key      : LISOPNO3
 value    :          229
 bucket   :           14  size            1
 key      : PSO4AQ
 value    :          241
 bucket   :           17  size            1
 key      : C2H6
 value    :           29
 bucket   :           18  size            1
 key      : DST1
 value    :           61
 bucket   :           21  size            2
 key      : IONO2
 value    :          133
 key      : C4HVP2
 value    :          255
 bucket   :           23  size            1
 key      : C2H4
 value    :           28
 bucket   :           25  size            2
 key      : HPETHNL
 value    :          103
 key      : OCPI
 value    :          185
 bucket   :           26  size            2
 key      : I2O2
 value    :          106
 key      : MVKN
 value    :          170
 bucket   :           27  size            1
 key      : H1211
 value    :           74
 bucket   :           28  size            2
 key      : CFC11
 value    :           32
 key      : INO
 value    :          127
 bucket   :           30  size            1
 key      : BUTDI
 value    :           24
 bucket   :           31  size            2
 key      : PIP
 value    :          192
 key      : IDNOO
 value    :          256
 bucket   :           32  size            1
 key      : ISALA
 value    :          135
 bucket   :           33  size            2
 key      : IHN4
 value    :          125
 key      : CH2OO
 value    :          288
 bucket   :           35  size            1
 key      : CLOO
 value    :           56
 bucket   :           36  size            3
 key      : CLNO2
 value    :           53
 key      : R4P
 value    :          200
 key      : PSO4
 value    :          246
 bucket   :           37  size            2
 key      : PRPE
 value    :          196
 key      : TRO2
 value    :          236
 bucket   :           38  size            1
 key      : MTPO
 value    :          164
 bucket   :           39  size            1
 key      : IHN2
 value    :          123
 bucket   :           41  size            1
 key      : MPN
 value    :          161
 bucket   :           42  size            3
 key      : ISALC
 value    :          136
 key      : MPAN
 value    :          160
 key      : O1D
 value    :          305
 bucket   :           43  size            3
 key      : CH2ICL
 value    :           41
 key      : CH3CL
 value    :           45
 key      : IONO
 value    :          132
 bucket   :           44  size            1
 key      : MVK
 value    :          165
 bucket   :           45  size            1
 key      : IEPOXB
 value    :          120
 bucket   :           46  size            1
 key      : HNO3
 value    :           93
 bucket   :           47  size            3
 key      : HCOOH
 value    :           87
 key      : NRO2
 value    :          232
 key      : LTRO2N
 value    :          235
 bucket   :           48  size            1
 key      : XYLE
 value    :          223
 bucket   :           49  size            3
 key      : ITHN
 value    :          139
 key      : PH2O2
 value    :          248
 key      : MVKOHOO
 value    :          276
 bucket   :           52  size            2
 key      : ITCN
 value    :          138
 key      : BENZO
 value    :          260
 bucket   :           54  size            2
 key      : HOI
 value    :           97
 key      : PRPN
 value    :          197
 bucket   :           55  size            2
 key      : MSA
 value    :          162
 key      : O2
 value    :          311
 bucket   :           57  size            2
 key      : SOAP
 value    :          220
 key      : LNRO2N
 value    :          231
 bucket   :           58  size            2
 key      : DMS
 value    :           60
 key      : CO2
 value    :          224
 bucket   :           59  size            1
 key      : ACET
 value    :            1
 bucket   :           60  size            2
 key      : R4N2
 value    :          199
 key      : N
 value    :          249
 bucket   :           61  size            1
 key      : POX
 value    :          242
 bucket   :           62  size            1
 key      : MCRHN
 value    :          148
 bucket   :           63  size            2
 key      : CL2
 value    :           51
 key      : HC5A
 value    :           81
 bucket   :           64  size            2
 key      : MCRHNB
 value    :          149
 key      : INO2B
 value    :          295
 bucket   :           65  size            1
 key      : PFE
 value    :          190
 bucket   :           66  size            1
 key      : HBR
 value    :           80
 bucket   :           67  size            1
 key      : PYAC
 value    :          198
 bucket   :           68  size            1
 key      : HOCL
 value    :           96
 bucket   :           69  size            1
 key      : NO2
 value    :          179
 bucket   :           70  size            3
 key      : IO
 value    :          130
 key      : HPALD1OO
 value    :          251
 key      : INA
 value    :          253
 bucket   :           71  size            1
 key      : BZCO3H
 value    :           25
 bucket   :           72  size            1
 key      : MCRHP
 value    :          150
 bucket   :           74  size            3
 key      : BRNO3
 value    :           20
 key      : CLOCK
 value    :           57
 key      : INO2D
 value    :          294
 bucket   :           78  size            2
 key      : IHPOO1
 value    :          267
 key      : BENZO2
 value    :          272
 bucket   :           79  size            1
 key      : H2O
 value    :           77
 bucket   :           80  size            1
 key      : MENO3
 value    :          153
 bucket   :           81  size            2
 key      : CH3CCL3
 value    :           44
 key      : ISOP
 value    :          137
 bucket   :           82  size            2
 key      : EOH
 value    :           65
 key      : LVOCOA
 value    :          142
 bucket   :           84  size            1
 key      : RIPC
 value    :          206
 bucket   :           85  size            3
 key      : C2H2
 value    :           27
 key      : CL
 value    :           50
 key      : GLYC
 value    :           72
 bucket   :           88  size            2
 key      : HCFC123
 value    :           82
 key      : PIO2
 value    :          290
 bucket   :           89  size            1
 key      : BRO
 value    :           21
 bucket   :           92  size            4
 key      : CH2CL2
 value    :           38
 key      : IDHNDOO1
 value    :          261
 key      : ATO2
 value    :          297
 key      : B3O2
 value    :          302
 bucket   :           93  size            1
 key      : R4O2
 value    :          300
 bucket   :           95  size            1
 key      : IEPOXD
 value    :          121
 bucket   :           97  size            2
 key      : AROMP4
 value    :            8
 key      : IDN
 value    :          118
 bucket   :          100  size            1
 key      : MCRDH
 value    :          146
 bucket   :          101  size            1
 key      : OH
 value    :          307
 bucket   :          102  size            1
 key      : NO3
 value    :          180
 bucket   :          103  size            1
 key      : IHPNDOO
 value    :          271
 bucket   :          104  size            1
 key      : CFC114
 value    :           34
 bucket   :          105  size            1
 key      : IHOO4
 value    :          292
 bucket   :          108  size            1
 key      : OTHRO2
 value    :          291
 bucket   :          109  size            2
 key      : CH4
 value    :           47
 key      : DST4
 value    :           64
 bucket   :          110  size            1
 key      : MONITA
 value    :          156
 bucket   :          111  size            1
 key      : AERI
 value    :            3
 bucket   :          112  size            1
 key      : HPALD1
 value    :           99
 bucket   :          113  size            3
 key      : ATOOH
 value    :           10
 key      : H2O2
 value    :           78
 key      : IPRNO3
 value    :          134
 bucket   :          114  size            1
 key      : BCPO
 value    :           13
 bucket   :          115  size            2
 key      : DST2
 value    :           62
 key      : OCS
 value    :          187
 bucket   :          116  size            1
 key      : MVKHP
 value    :          169
 bucket   :          118  size            2
 key      : ICNOO
 value    :          257
 key      : ISOPNOO1
 value    :          262
 bucket   :          119  size            2
 key      : ACTA
 value    :            2
 key      : ICHE
 value    :          110
 bucket   :          120  size            3
 key      : CHBR3
 value    :           48
 key      : CL2O2
 value    :           52
 key      : NH4
 value    :          175
 bucket   :          121  size            1
 key      : I2
 value    :          105
 bucket   :          122  size            1
 key      : LVOC
 value    :          141
 bucket   :          124  size            1
 key      : C4HVP1
 value    :          254
 bucket   :          126  size            2
 key      : IDC
 value    :          114
 key      : H
 value    :          264
 bucket   :          127  size            1
 key      : MVKPC
 value    :          171
 bucket   :          128  size            2
 key      : MACR1OOH
 value    :          144
 key      : IHPOO3
 value    :          270
 bucket   :          129  size            3
 key      : BRCL
 value    :           18
 key      : INPD
 value    :          129
 key      : PHEN
 value    :          191
 bucket   :          130  size            1
 key      : KO2
 value    :          298
 bucket   :          133  size            1
 key      : NAP
 value    :          233
 bucket   :          135  size            3
 key      : ETHP
 value    :           68
 key      : INPB
 value    :          128
 key      : HO2
 value    :          306
 bucket   :          136  size            2
 key      : CO
 value    :           58
 key      : MONITS
 value    :          157
 bucket   :          141  size            2
 key      : OIO
 value    :          188
 key      : OLNN
 value    :          280
 bucket   :          142  size            3
 key      : IDCHP
 value    :          115
 key      : PP
 value    :          193
 key      : N2
 value    :          310
 bucket   :          143  size            2
 key      : HNO4
 value    :           94
 key      : NH3
 value    :          174
 bucket   :          144  size            2
 key      : MVKDH
 value    :          166
 key      : ICHOO
 value    :          273
 bucket   :          146  size            2
 key      : RIPA
 value    :          204
 key      : SO2
 value    :          215
 bucket   :          147  size            2
 key      : MP
 value    :          159
 key      : NO
 value    :          178
 bucket   :          148  size            1
 key      : SOAS
 value    :          221
 bucket   :          149  size            1
 key      : IHPNBOO
 value    :          283
 bucket   :          151  size            4
 key      : ETNO3
 value    :           69
 key      : NPHEN
 value    :          181
 key      : SOAIE
 value    :          219
 key      : PO2
 value    :          279
 bucket   :          152  size            1
 key      : AROMRO2
 value    :          269
 bucket   :          153  size            1
 key      : MACR
 value    :          143
 bucket   :          154  size            1
 key      : MOH
 value    :          155
 bucket   :          156  size            2
 key      : SO4
 value    :          216
 key      : LCO
 value    :          245
 bucket   :          157  size            1
 key      : IDHNDOO2
 value    :          263
 bucket   :          160  size            1
 key      : IDHPE
 value    :          117
 bucket   :          161  size            1
 key      : SALC
 value    :          212
 bucket   :          162  size            2
 key      : HPALD3
 value    :          101
 key      : IEPOXAOO
 value    :          285
 bucket   :          163  size            1
 key      : H1301
 value    :           75
 bucket   :          167  size            2
 key      : HI
 value    :           88
 key      : SALA
 value    :          209
 bucket   :          171  size            1
 key      : HMHP
 value    :           89
 bucket   :          172  size            1
 key      : LISOPOH
 value    :          228
 bucket   :          173  size            1
 key      : LXRO2H
 value    :          237
 bucket   :          174  size            1
 key      : ICL
 value    :          111
 bucket   :          175  size            1
 key      : ROH
 value    :          259
 bucket   :          176  size            1
 key      : MACR1OO
 value    :          278
 bucket   :          177  size            1
 key      : LCH4
 value    :          247
 bucket   :          179  size            3
 key      : I2O3
 value    :          107
 key      : BRO2
 value    :          227
 key      : A3O2
 value    :          289
 bucket   :          180  size            1
 key      : C3H8
 value    :           30
 bucket   :          183  size            2
 key      : LBRO2H
 value    :          225
 key      : ISOPNOO2
 value    :          258
 bucket   :          184  size            1
 key      : ICN
 value    :          112
 bucket   :          186  size            2
 key      : AONITA
 value    :            7
 key      : MONITU
 value    :          158
 bucket   :          187  size            1
 key      : MEK
 value    :          152
 bucket   :          188  size            1
 key      : BCPI
 value    :           12
 bucket   :          189  size            1
 key      : CFC12
 value    :           36
 bucket   :          190  size            2
 key      : NPRNO3
 value    :          182
 key      : PH2SO4
 value    :          240
 bucket   :          192  size            1
 key      : IHN3
 value    :          124
 bucket   :          194  size            2
 key      : ALK4
 value    :            6
 key      : N2O5
 value    :          173
 bucket   :          196  size            1
 key      : BR2
 value    :           17
 bucket   :          197  size            2
 key      : CLNO3
 value    :           54
 key      : ETHN
 value    :           67
 bucket   :          198  size            2
 key      : IHN1
 value    :          122
 key      : SALCAL
 value    :          213
 bucket   :          199  size            2
 key      : AL2O3
 value    :            4
 key      : ETP
 value    :           70
 bucket   :          201  size            2
 key      : XRO2
 value    :          239
 key      : RCOOH
 value    :          312
 bucket   :          203  size            1
 key      : HCFC142B
 value    :           84
 bucket   :          204  size            2
 key      : IEPOXA
 value    :          119
 key      : SALAAL
 value    :          210
 bucket   :          205  size            2
 key      : HNO2
 value    :           92
 key      : PAN
 value    :          189
 bucket   :          207  size            3
 key      : CFC113
 value    :           33
 key      : IDHDP
 value    :          116
 key      : OCPO
 value    :          186
 bucket   :          208  size            2
 key      : SALCCL
 value    :          214
 key      : H2
 value    :          309
 bucket   :          209  size            2
 key      : ETHLN
 value    :           66
 key      : LOX
 value    :          243
 bucket   :          212  size            1
 key      : MO2
 value    :          304
 bucket   :          213  size            1
 key      : BENZP
 value    :           15
 bucket   :          214  size            2
 key      : H2402
 value    :           76
 key      : SALACL
 value    :          211
 bucket   :          218  size            3
 key      : BR
 value    :           16
 key      : HAC
 value    :           79
 key      : RCHO
 value    :          203
 bucket   :          219  size            2
 key      : LNRO2H
 value    :          230
 key      : R4N1
 value    :          301
 bucket   :          220  size            1
 key      : MAP
 value    :          145
 bucket   :          222  size            2
 key      : HMS
 value    :           91
 key      : ETO
 value    :          250
 bucket   :          223  size            1
 key      : SO4S
 value    :          217
 bucket   :          224  size            1
 key      : RP
 value    :          208
 bucket   :          225  size            1
 key      : BRNO2
 value    :           19
 bucket   :          227  size            1
 key      : CHCL3
 value    :           49
 bucket   :          229  size            1
 key      : CH3CHOO
 value    :          274
 bucket   :          231  size            1
 key      : BZCO3
 value    :          266
 bucket   :          232  size            1
 key      : CH3BR
 value    :           43
 bucket   :          233  size            1
 key      : BZPAN
 value    :           26
 bucket   :          234  size            1
 key      : CH2O
 value    :           42
 bucket   :          235  size            1
 key      : IBR
 value    :          109
 bucket   :          236  size            1
 key      : HMML
 value    :           90
 bucket   :          237  size            3
 key      : BRSALC
 value    :           23
 key      : RB3P
 value    :          202
 key      : RIPD
 value    :          207
 bucket   :          238  size            1
 key      : ICPDH
 value    :          113
 bucket   :          239  size            1
 key      : MGLY
 value    :          154
 bucket   :          240  size            2
 key      : CSL
 value    :           59
 key      : HONIT
 value    :           98
 bucket   :          243  size            2
 key      : BRSALA
 value    :           22
 key      : OCLO
 value    :          184
 bucket   :          246  size            1
 key      : IHOO1
 value    :          293
 bucket   :          248  size            1
 key      : MTPA
 value    :          163
 bucket   :          249  size            1
 key      : ALD2
 value    :            5
 bucket   :          250  size            2
 key      : AROMP5
 value    :            9
 key      : HCFC141B
 value    :           83
 bucket   :          253  size            1
 key      : BENZ
 value    :           14
 bucket   :          256  size            2
 key      : ETO2
 value    :          282
 key      : MCO3
 value    :          303
 bucket   :          257  size            2
 key      : CFC115
 value    :           35
 key      : IDHNBOO
 value    :          287
 bucket   :          258  size            1
 key      : IONITA
 value    :          131
 bucket   :          261  size            2
 key      : HCL
 value    :           86
 key      : INDIOL
 value    :          126
 bucket   :          262  size            1
 key      : MCRENOL
 value    :          147
 bucket   :          263  size            1
 key      : MVKHC
 value    :          167
 bucket   :          265  size            2
 key      : MVKHCB
 value    :          168
 key      : LTRO2H
 value    :          234
 bucket   :          266  size            1
 key      : GLYX
 value    :           73
 bucket   :          267  size            1
 key      : PROPNN
 value    :          195
 bucket   :          268  size            4
 key      : CCL4
 value    :           31
 key      : CLO
 value    :           55
 key      : DST3
 value    :           63
 key      : FURA
 value    :           71
 bucket   :          271  size            1
 key      : LIMO
 value    :          140
 bucket   :          273  size            1
 key      : HOBR
 value    :           95
 bucket   :          276  size            1
 key      : I2O4
 value    :          108
 bucket   :          277  size            2
 key      : LBRO2N
 value    :          226
 key      : RCO3
 value    :          299
 bucket   :          279  size            1
 key      : HPALD2OO
 value    :          252
 bucket   :          280  size            2
 key      : O3
 value    :          183
 key      : MACRNO2
 value    :          296
 bucket   :          281  size            2
 key      : CH2BR2
 value    :           37
 key      : NIT
 value    :          176
 bucket   :          282  size            1
 key      : TOLU
 value    :          222
 bucket   :          283  size            1
 key      : OLND
 value    :          281
 bucket   :          285  size            2
 key      : CH3I
 value    :           46
 key      : O
 value    :          308
 bucket   :          286  size            1
 key      : CH2I2
 value    :           39
 bucket   :          287  size            1
 key      : IHPOO2
 value    :          268
 bucket   :          288  size            1
 key      : CH2IBR
 value    :           40
 bucket   :          292  size            2
 key      : NITS
 value    :          177
 key      : PPN
 value    :          194
 bucket   :          295  size            1
 key      : I
 value    :          104
 bucket   :          296  size            1
 key      : SOAGX
 value    :          218
 bucket   :          299  size            1
 key      : RIPB
 value    :          205
 bucket   :          301  size            1
 key      : ETOO
 value    :          265
 bucket   :          305  size            1
 key      : LIMO2
 value    :          284
 bucket   :          311  size            1
 key      : PRN1
 value    :          275
===============================================================================
SPECIES NAMES AND INDICES

Name               ModelId  DryDepId  WetDepId  PhotolId HygGrthId  KppSpcId
-------------------------------------------------------------------------------
ACET                     1         1         -         1         -       221
ACTA                     2         2         1         -         -       219
AERI                     3         3         2         -         -         4
AL2O3                    4         4         3         -         1         -
ALD2                     5         5         4         2         -       264
ALK4                     6         -         -         -         -       114
AONITA                   7         6         5         -         -         5
AROMP4                   8         7         6         -         -       159
AROMP5                   9         8         7         -         -       148
ATOOH                   10         9         8         3         -       196
BALD                    11        10         9         4         -       101
BCPI                    12        11        10         -         2         -
BCPO                    13        12        11         -         -         -
BENZ                    14         -         -         -         -        64
BENZP                   15        13        12         5         -       107
Br                      16         -         -         -         -       273
Br2                     17        14        13         6         -       128
BrCl                    18        15        14         7         -       135
BrNO2                   19         -         -         8         -        51
BrNO3                   20        16         -         9         -       176
BrO                     21         -         -        10         -       274
BrSALA                  22        17        15         -         -       283
BrSALC                  23        18        16         -         -       277
BUTDI                   24         -         -         -         -         6
BZCO3H                  25        19        17        11         -        70
BZPAN                   26        20        18         -         -        97
C2H2                    27         -         -         -         -        58
C2H4                    28         -         -         -         -        76
C2H6                    29         -         -         -         -       161
C3H8                    30         -         -         -         -       124
CCl4                    31         -         -        12         -        52
CFC11                   32         -         -        13         -        53
CFC113                  33         -         -        14         -        55
CFC114                  34         -         -        15         -        56
CFC115                  35         -         -        16         -        57
CFC12                   36         -         -        17         -        54
CH2Br2                  37         -         -        18         -        71
CH2Cl2                  38         -         -        19         -        72
CH2I2                   39         -         -        20         -         1
CH2IBr                  40         -         -        21         -         2
CH2ICl                  41         -         -        22         -         3
CH2O                    42        21        19        23         -       263
CH3Br                   43         -         -        24         -       100
CH3CCl3                 44         -         -        25         -        43
CH3Cl                   45         -         -        26         -       149
CH3I                    46         -         -        27         -        46
CH4                     47         -         -         -         -       190
CHBr3                   48         -         -        28         -        77
CHCl3                   49         -         -        29         -        78
Cl                      50         -         -         -         -       290
Cl2                     51        22         -        30         -       197
Cl2O2                   52         -         -        31         -        75
ClNO2                   53        23         -        32         -       235
ClNO3                   54        24         -        33         -       262
ClO                     55        25         -        34         -       285
ClOO                    56        26         -        35         -       103
CLOCK                   57         -         -         -         -         -
CO                      58         -         -         -         -       267
CSL                     59        27        20         -         -       115
DMS                     60         -         -         -         -        90
DST1                    61        28        21         -         -         -
DST2                    62        29        22         -         -         -
DST3                    63        30        23         -         -         -
DST4                    64        31        24         -         -         -
EOH                     65        32        25         -         -       133
ETHLN                   66        33        26        36         -       208
ETHN                    67        34        27         -         -        68
ETHP                    68        35        28        37         -       120
ETNO3                   69        36         -        38         -        96
ETP                     70        37        29        39         -       110
FURA                    71        38        30         -         -        41
GLYC                    72        39        31        40         -       236
GLYX                    73        40        32        41         -       223
H1211                   74         -         -        42         -        59
H1301                   75         -         -        43         -        47
H2402                   76         -         -        44         -        48
H2O                     77         -         -         -         -       278
H2O2                    78        41        33        45         -       212
HAC                     79        42        34        46         -       250
HBr                     80        43        35         -         -       289
HC5A                    81        44        36        47         -       192
HCFC123                 82         -         -        48         -        81
HCFC141b                83         -         -        49         -        82
HCFC142b                84         -         -        50         -        83
HCFC22                  85         -         -        51         -        84
HCl                     86        45        37         -         -       275
HCOOH                   87        46        38         -         -       211
HI                      88        47        39         -         -        69
HMHP                    89        48        40        52         -        85
HMML                    90        49        41         -         -       105
HMS                     91        50        42         -         -        86
HNO2                    92         -         -        53         -       193
HNO3                    93        51        43        54         -       265
HNO4                    94         -         -        55         -       102
HOBr                    95        52        44        56         -       260
HOCl                    96        53        45        57         -       271
HOI                     97        54        46        58         -       268
HONIT                   98        55        47        59         -       134
HPALD1                  99        56         -        60         -       186
HPALD2                 100        57         -        61         -       188
HPALD3                 101        58         -        62         -       129
HPALD4                 102        59         -        63         -       127
HPETHNL                103        60        48        64         -       172
I                      104         -         -         -         -       269
I2                     105        61        49        65         -       143
I2O2                   106        62        50        66         -        44
I2O3                   107        63        51        67         -        49
I2O4                   108        64        52        68         -        42
IBr                    109        65        53        69         -        73
ICHE                   110        66        54         -         -       174
ICl                    111        67        55        70         -        99
ICN                    112        68        56        71         -       240
ICPDH                  113        69        57        72         -       206
IDC                    114        70         -         -         -       109
IDCHP                  115        71        58        73         -       125
IDHDP                  116        72        59        74         -       141
IDHPE                  117        73        60        75         -       164
IDN                    118        74        61        76         -       243
IEPOXA                 119        75        62         -         -       130
IEPOXB                 120        76        63         -         -       131
IEPOXD                 121        77        64         -         -       116
IHN1                   122        78        65        77         -       220
IHN2                   123        79        66        78         -       139
IHN3                   124        80        67        79         -       140
IHN4                   125        81        68        80         -       214
INDIOL                 126        82        69         -         -         8
INO                    127         -         -        81         -        60
INPB                   128        83        70        82         -       181
INPD                   129        84        71        83         -       151
IO                     130         -         -        84         -       227
IONITA                 131        85        72         -         -        98
IONO                   132        86        73        85         -       203
IONO2                  133        87        74        86         -       270
IPRNO3                 134        88         -        87         -        87
ISALA                  135        89        75         -         -         9
ISALC                  136        90        76         -         -        10
ISOP                   137         -         -         -         -       224
ITCN                   138        91        77        88         -       213
ITHN                   139        92        78        89         -       242
LIMO                   140        93        79         -         -       170
LVOC                   141        94        80         -         -        24
LVOCOA                 142        95        81         -         -        23
MACR                   143        96         -        90         -       251
MACR1OOH               144        97        82        91         -       136
MAP                    145        98        83        92         -        88
MCRDH                  146        99        84         -         -       132
MCRENOL                147       100        85        93         -       163
MCRHN                  148       101        86        94         -       200
MCRHNB                 149       102        87        95         -       175
MCRHP                  150       103        88        96         -       231
MCT                    151       104        89         -         -       142
MEK                    152         -        90        97         -       226
MENO3                  153       105         -        98         -        89
MGLY                   154       106        91        99         -       233
MOH                    155       107        92         -         -       218
MONITA                 156       108        93         -         -        45
MONITS                 157       109        94       100         -       178
MONITU                 158       110        95       101         -       199
MP                     159         -        96       102         -       137
MPAN                   160       111        97       103         -       153
MPN                    161         -        98       104         -        74
MSA                    162       112        99         -         -        28
MTPA                   163       113       100         -         -       154
MTPO                   164       114       101         -         -       155
MVK                    165       115       102       105         -       248
MVKDH                  166       116       103         -         -       117
MVKHC                  167       117       104       106         -       169
MVKHCB                 168       118       105       107         -       185
MVKHP                  169       119       106       108         -       230
MVKN                   170       120       107       109         -       241
MVKPC                  171       121       108       110         -       156
N2O                    172         -         -       111         -        61
N2O5                   173       122         -       112         -       173
NH3                    174       123       109         -         -         -
NH4                    175       124       110         -         -         -
NIT                    176       125       111       113         -        62
NITs                   177       126       112       114         -        63
NO                     178         -         -       115         -       279
NO2                    179       127         -       116         -       291
NO3                    180         -         -       117         -       281
NPHEN                  181       128       113       118         -       210
NPRNO3                 182       129         -       119         -        91
O3                     183       130         -       120         -       282
OClO                   184         -         -       121         -       111
OCPI                   185       131       114         -         3         -
OCPO                   186       132       115         -         -         -
OCS                    187         -         -       122         -        66
OIO                    188         -         -       123         -        92
PAN                    189       133       116       124         -        67
pFe                    190       134       117         -         -         -
PHEN                   191       135       118         -         -       118
PIP                    192         -         -       125         -       119
PP                     193       136       119       126         -       112
PPN                    194       137       120         -         -        50
PROPNN                 195       138       121       127         -       198
PRPE                   196         -       122         -         -       253
PRPN                   197       139       123       128         -       113
PYAC                   198       140       124       129         -       104
R4N2                   199       141       125       130         -       202
R4P                    200       142       126       131         -        93
RA3P                   201       143       127       132         -        94
RB3P                   202       144       128       133         -        95
RCHO                   203         -         -       134         -       259
RIPA                   204       145       129       135         -       157
RIPB                   205       146       130       136         -       162
RIPC                   206       147       131       137         -       171
RIPD                   207       148       132       138         -       165
RP                     208       149       133       139         -       106
SALA                   209       150       134         -         4         -
SALAAL                 210       151       135         -         -       147
SALACL                 211       152       136         -         -       280
SALC                   212       153       137         -         5         -
SALCAL                 213       154       138         -         -       138
SALCCL                 214       155       139         -         -       287
SO2                    215       156       140         -         -       276
SO4                    216       157       141       140         6       122
SO4s                   217       158       142         -         -        29
SOAGX                  218       159       143         -         -        30
SOAIE                  219       160       144         -         -        31
SOAP                   220         -         -         -         -         -
SOAS                   221       161       145         -         -         -
TOLU                   222         -         -         -         -        79
XYLE                   223         -         -         -         -        80
CO2                    224         -         -         -         -         7
LBRO2H                 225         -         -         -         -        11
LBRO2N                 226         -         -         -         -        12
BRO2                   227         -         -         -         -        13
LISOPOH                228         -         -         -         -        14
LISOPNO3               229         -         -         -         -        15
LNRO2H                 230         -         -         -         -        16
LNRO2N                 231         -         -         -         -        17
NRO2                   232         -         -         -         -        18
NAP                    233         -         -         -         -        19
LTRO2H                 234         -         -         -         -        20
LTRO2N                 235         -         -         -         -        21
TRO2                   236         -         -         -         -        22
LXRO2H                 237         -         -         -         -        25
LXRO2N                 238         -         -         -         -        26
XRO2                   239         -         -         -         -        27
PH2SO4                 240         -         -         -         -        32
PSO4AQ                 241         -         -         -         -        33
POx                    242         -         -         -         -        34
LOx                    243         -         -         -         -        35
PCO                    244         -         -         -         -        36
LCO                    245         -         -         -         -        37
PSO4                   246         -         -         -         -        38
LCH4                   247         -         -         -         -        39
PH2O2                  248         -         -         -         -        40
N                      249         -         -         -         -        65
ETO                    250         -         -         -         -       108
HPALD1OO               251         -         -         -         -       121
HPALD2OO               252         -         -         -         -       123
INA                    253         -         -         -         -       126
C4HVP1                 254         -         -         -         -       144
C4HVP2                 255         -         -         -         -       145
IDNOO                  256         -         -         -         -       146
ICNOO                  257         -         -         -         -       150
ISOPNOO2               258         -         -         -         -       152
ROH                    259         -         -         -         -       158
BENZO                  260         -         -         -         -       160
IDHNDOO1               261         -         -         -         -       166
ISOPNOO1               262         -         -         -         -       167
IDHNDOO2               263         -         -         -         -       168
H                      264         -         -         -         -       177
ETOO                   265         -         -         -         -       179
BZCO3                  266         -         -         -         -       180
IHPOO1                 267         -         -         -         -       182
IHPOO2                 268         -         -         -         -       183
AROMRO2                269         -         -         -         -       184
IHPOO3                 270         -         -         -         -       187
IHPNDOO                271         -         -         -         -       189
BENZO2                 272         -         -         -         -       191
ICHOO                  273         -         -         -         -       194
CH3CHOO                274         -         -         -         -       195
PRN1                   275         -         -         -         -       201
MVKOHOO                276         -         -         -         -       204
MCROHOO                277         -         -         -         -       205
MACR1OO                278         -         -         -         -       207
PO2                    279         -         -         -         -       209
OLNN                   280         -         -         -         -       215
OLND                   281         -         -         -         -       216
ETO2                   282         -         -         -         -       217
IHPNBOO                283         -         -         -         -       222
LIMO2                  284         -         -         -         -       225
IEPOXAOO               285         -         -         -         -       228
IEPOXBOO               286         -         -         -         -       229
IDHNBOO                287         -         -         -         -       232
CH2OO                  288         -         -         -         -       234
A3O2                   289         -         -         -         -       237
PIO2                   290         -         -         -         -       238
OTHRO2                 291         -         -         -         -       239
IHOO4                  292         -         -         -         -       244
IHOO1                  293         -         -         -         -       245
INO2D                  294         -         -         -         -       246
INO2B                  295         -         -         -         -       247
MACRNO2                296         -         -         -         -       249
ATO2                   297         -         -         -         -       252
KO2                    298         -         -         -         -       254
RCO3                   299         -         -         -         -       255
R4O2                   300         -         -         -         -       256
R4N1                   301         -         -         -         -       257
B3O2                   302         -         -         -         -       258
MCO3                   303         -         -         -         -       261
MO2                    304         -         -         -         -       266
O1D                    305         -         -         -         -       272
HO2                    306         -         -         -         -       284
OH                     307         -         -         -         -       286
O                      308         -         -         -         -       288
H2                     309         -         -         -         -       292
N2                     310         -         -         -         -       293
O2                     311         -         -       141         -       294
RCOOH                  312         -         -         -         -       295
===============================================================================
===============================================================================
V E R T I C A L   G R I D   S E T U P

INIT_PRESSURE: Vertical coordinates!

Ap 
   0.000000    0.048048    6.593752   13.134800   19.613110   26.092010
  32.570810   38.982010   45.339010   51.696110   58.053210   64.362640
  70.621980   78.834220   89.099920   99.365210  109.181700  118.958600
 128.695900  142.910000  156.260000  169.609000  181.619000  193.097000
 203.259000  212.150000  218.776000  223.898000  224.363000  216.865000
 201.192000  176.930000  150.393000  127.837000  108.663000   92.365720
  78.512310   56.387910   40.175410   28.367810   19.791600    9.292942
   4.076571    1.650790    0.616779    0.211349    0.066000    0.010000

Bp 
   1.000000    0.984952    0.963406    0.941865    0.920387    0.898908
   0.877429    0.856018    0.834661    0.813304    0.791947    0.770637
   0.749378    0.721166    0.685900    0.650635    0.615818    0.581041
   0.546304    0.494590    0.443740    0.392891    0.343381    0.294403
   0.246741    0.200350    0.156224    0.113602    0.063720    0.028010
   0.006960    0.000000    0.000000    0.000000    0.000000    0.000000
   0.000000    0.000000    0.000000    0.000000    0.000000    0.000000
   0.000000    0.000000    0.000000    0.000000    0.000000    0.000000
===============================================================================
READ_DRYDEP_INPUTS: Opening /shared/ucl/depts/uptrop/uclgcfs/gcgrid/gcdata/ExtData/CHEM_INPUTS/Olson_Land_Map_201203/Olson_2001_Drydep_Inputs.nc

LINOZ (LINOZ_READ): Opening /shared/ucl/depts/uptrop/uclgcfs/gcgrid/gcdata/ExtData/CHEM_INPUTS/Linoz_200910/Linoz_March2007.dat
HISTORY (INIT): Opening ./HISTORY.rc

===============================================================================
DEFINED DIAGNOSTIC COLLECTIONS:
===============================================================================
 Collection        Restart
   -> FileName     ./Restarts/GEOSChem.Restart.%y4%m2%d2_%h2%n2z.nc4
   -> Frequency    00000100000000
   -> Duration     00000100000000
   -> Mode         instantaneous
 Collection        Metrics
   -> FileName     OutputDir/GEOSChem.Metrics.%y4%m2%d2_%h2%n2z.nc4
   -> Frequency    End
   -> Duration     End
   -> Mode         time-averaged
 Collection        SpeciesConc
   -> FileName     OutputDir/GEOSChem.SpeciesConc.%y4%m2%d2_%h2%n2z.nc4
   -> Frequency    00000100000000
   -> Duration     00000100000000
   -> Mode         time-averaged
===============================================================================

%%%%%%%%%%%%%%%%%%%%%%%%%%%%%%%%%%%%%%%%%%%%%%%%%%%%%%%%%%%%%%%%%%%%%%%%%%%%%%%
%%%%%               HEMCO: Harmonized Emissions Component                 %%%%%
%%%%%               You are using HEMCO version 3.8.0                     %%%%%
%%%%%%%%%%%%%%%%%%%%%%%%%%%%%%%%%%%%%%%%%%%%%%%%%%%%%%%%%%%%%%%%%%%%%%%%%%%%%%%
  
Reading settings & switches of HEMCO configuration file: HEMCO_Config.rc

HEMCO verbose output is OFF
  
Reading fields of HEMCO configuration file: HEMCO_Config.rc
  
Reading entire HEMCO configuration file: HEMCO_Config.rc.gmao_metfields
Using HEMCO extension: ParaNOx (ship emission plumes)
HEMCO (PARANOX): Opening /shared/ucl/depts/uptrop/uclgcfs/gcgrid/gcdata/ExtData/HEMCO/PARANOX/v2015-02/ship_plume_lut_02ms.nc
HEMCO (PARANOX): Opening /shared/ucl/depts/uptrop/uclgcfs/gcgrid/gcdata/ExtData/HEMCO/PARANOX/v2015-02/ship_plume_lut_06ms.nc
HEMCO (PARANOX): Opening /shared/ucl/depts/uptrop/uclgcfs/gcgrid/gcdata/ExtData/HEMCO/PARANOX/v2015-02/ship_plume_lut_10ms.nc
HEMCO (PARANOX): Opening /shared/ucl/depts/uptrop/uclgcfs/gcgrid/gcdata/ExtData/HEMCO/PARANOX/v2015-02/ship_plume_lut_14ms.nc
HEMCO (PARANOX): Opening /shared/ucl/depts/uptrop/uclgcfs/gcgrid/gcdata/ExtData/HEMCO/PARANOX/v2015-02/ship_plume_lut_18ms.nc
HEMCO (LIGHTNOX): Opening /shared/ucl/depts/uptrop/uclgcfs/gcgrid/gcdata/ExtData/HEMCO/LIGHTNOX/v2014-07/light_dist.ott2010.dat
Using HEMCO extension: LightNOx (lightning NOx emissions
Using HEMCO extension: Volcano (volcanic SO2 emissions)
Using HEMCO extension: SeaFlux (air-sea flux emissions)
Using HEMCO extension: MEGAN (biogenic emissions)
Using HEMCO extension: GFED (biomass burning)
Using HEMCO extension: Inorg_Iodine (HOI and I2 emissions)
HEMCO: Opening /shared/ucl/depts/uptrop/uclgcfs/gcgrid/gcdata/ExtData/HEMCO/XIAO/v2014-09/C3H8_C2H6_ngas.geos.1x1.nc
HEMCO: Opening /shared/ucl/depts/uptrop/uclgcfs/gcgrid/gcdata/ExtData/HEMCO/BIOFUEL/v2019-08/biofuel.geos.2x25.nc
HEMCO: Opening /shared/ucl/depts/uptrop/uclgcfs/gcgrid/gcdata/ExtData/HEMCO/BROMINE/v2015-02/Bromocarb_Liang2010.nc
HEMCO: Opening /shared/ucl/depts/uptrop/uclgcfs/gcgrid/gcdata/ExtData/HEMCO/ACET/v2014-07/ACET_seawater.generic.1x1.nc
HEMCO: Opening /shared/ucl/depts/uptrop/uclgcfs/gcgrid/gcdata/ExtData/HEMCO/MOH/v2019-12/MOH_seawater.low.kgCm3.generic.1x1.nc
HEMCO: Opening /shared/ucl/depts/uptrop/uclgcfs/gcgrid/gcdata/ExtData/HEMCO/MEGAN/v2018-05/MEGAN2.1_EF.geos.025x03125.nc
HEMCO: Opening /shared/ucl/depts/uptrop/uclgcfs/gcgrid/gcdata/ExtData/HEMCO/MEGAN/v2018-05/CLM4_PFT.geos.025x03125.v201805.nc
HEMCO: Opening /shared/ucl/depts/uptrop/uclgcfs/gcgrid/gcdata/ExtData/HEMCO/TIMEZONES/v2015-02/timezones_voronoi_1x1.nc
HEMCO: Opening /shared/ucl/depts/uptrop/uclgcfs/gcgrid/gcdata/ExtData/GEOS_4x5/MERRA2/2015/01/MERRA2.20150101.CN.4x5.nc4
HEMCO: Opening ./Restarts/GEOSChem.Restart.20200101_0000z.nc4
HEMCO: Opening /shared/ucl/depts/uptrop/uclgcfs/gcgrid/gcdata/ExtData/HEMCO/OLSON_MAP/v2019-02/Olson_2001_Land_Type_Masks.025x025.generic.nc
HEMCO: Opening /shared/ucl/depts/uptrop/uclgcfs/gcgrid/gcdata/ExtData/HEMCO/SfcFix/v2019-12/surface_VMR_OCS.2x25.nc
HEMCO: Opening /shared/ucl/depts/uptrop/uclgcfs/gcgrid/gcdata/ExtData/HEMCO/SfcFix/v2019-12/surface_VMR_H2.2x25.nc
HEMCO: Opening /shared/ucl/depts/uptrop/uclgcfs/gcgrid/gcdata/ExtData/HEMCO/OCEAN_O3_DRYDEP/v2020-02/WOA_2013_salinity.nc
HEMCO: Opening /shared/ucl/depts/uptrop/uclgcfs/gcgrid/gcdata/ExtData/HEMCO/AnnualScalar/v2014-07/AnnualScalar.geos.1x1.nc
HEMCO: Opening /shared/ucl/depts/uptrop/uclgcfs/gcgrid/gcdata/ExtData/HEMCO/EDGARv42/v2015-02/NO/EDGAR_hourly_NOxScal.nc
HEMCO: Opening /shared/ucl/depts/uptrop/uclgcfs/gcgrid/gcdata/ExtData/HEMCO/VerticalScaleFactors/v2021-05/gc_layers.nc
HEMCO: Opening /shared/ucl/depts/uptrop/uclgcfs/gcgrid/gcdata/ExtData/HEMCO/MASKS/v2018-09/China_mask.generic.1x1.nc
HEMCO: Opening /shared/ucl/depts/uptrop/uclgcfs/gcgrid/gcdata/ExtData/HEMCO/MASKS/v2019-05/India_mask.generic.1x1.nc
HEMCO: Opening /shared/ucl/depts/uptrop/uclgcfs/gcgrid/gcdata/ExtData/HEMCO/AnnualScalar/v2014-07/AnnualScalar.geos.1x1.nc
HEMCO: Opening /shared/ucl/depts/uptrop/uclgcfs/gcgrid/gcdata/ExtData/HEMCO/CEDS/v2021-06/2019/NO-em-anthro_CMIP_CEDS_2019.nc
HEMCO: Opening /shared/ucl/depts/uptrop/uclgcfs/gcgrid/gcdata/ExtData/HEMCO/CEDS/v2021-06/2019/CO-em-anthro_CMIP_CEDS_2019.nc
HEMCO: Opening /shared/ucl/depts/uptrop/uclgcfs/gcgrid/gcdata/ExtData/HEMCO/CEDS/v2021-06/2019/SO2-em-anthro_CMIP_CEDS_2019.nc
HEMCO: Opening /shared/ucl/depts/uptrop/uclgcfs/gcgrid/gcdata/ExtData/HEMCO/CEDS/v2021-06/2019/NH3-em-anthro_CMIP_CEDS_2019.nc
HEMCO: Opening /shared/ucl/depts/uptrop/uclgcfs/gcgrid/gcdata/ExtData/HEMCO/CEDS/v2021-06/2019/BC-em-anthro_CMIP_CEDS_2019.nc
HEMCO: Opening /shared/ucl/depts/uptrop/uclgcfs/gcgrid/gcdata/ExtData/HEMCO/CEDS/v2021-06/2019/OC-em-anthro_CMIP_CEDS_2019.nc
HEMCO: Opening /shared/ucl/depts/uptrop/uclgcfs/gcgrid/gcdata/ExtData/HEMCO/CEDS/v2021-06/2019/EOH-em-anthro_CMIP_CEDS_2019.nc
HEMCO: Opening /shared/ucl/depts/uptrop/uclgcfs/gcgrid/gcdata/ExtData/HEMCO/CEDS/v2021-06/2019/ALK4_butanes-em-anthro_CMIP_CEDS_2019.nc
HEMCO: Opening /shared/ucl/depts/uptrop/uclgcfs/gcgrid/gcdata/ExtData/HEMCO/CEDS/v2021-06/2019/ALK4_pentanes-em-anthro_CMIP_CEDS_2019.nc
HEMCO: Opening /shared/ucl/depts/uptrop/uclgcfs/gcgrid/gcdata/ExtData/HEMCO/CEDS/v2021-06/2019/ALK4_hexanes-em-anthro_CMIP_CEDS_2019.nc
HEMCO: Opening /shared/ucl/depts/uptrop/uclgcfs/gcgrid/gcdata/ExtData/HEMCO/CEDS/v2021-06/2019/C2H4-em-anthro_CMIP_CEDS_2019.nc
HEMCO: Opening /shared/ucl/depts/uptrop/uclgcfs/gcgrid/gcdata/ExtData/HEMCO/CEDS/v2021-06/2019/PRPE-em-anthro_CMIP_CEDS_2019.nc
HEMCO: Opening /shared/ucl/depts/uptrop/uclgcfs/gcgrid/gcdata/ExtData/HEMCO/CEDS/v2021-06/2019/C2H2-em-anthro_CMIP_CEDS_2019.nc
HEMCO: Opening /shared/ucl/depts/uptrop/uclgcfs/gcgrid/gcdata/ExtData/HEMCO/CEDS/v2021-06/2019/BENZ-em-anthro_CMIP_CEDS_2019.nc
HEMCO: Opening /shared/ucl/depts/uptrop/uclgcfs/gcgrid/gcdata/ExtData/HEMCO/CEDS/v2021-06/2019/TOLU-em-anthro_CMIP_CEDS_2019.nc
HEMCO: Opening /shared/ucl/depts/uptrop/uclgcfs/gcgrid/gcdata/ExtData/HEMCO/CEDS/v2021-06/2019/XYLE-em-anthro_CMIP_CEDS_2019.nc
HEMCO: Opening /shared/ucl/depts/uptrop/uclgcfs/gcgrid/gcdata/ExtData/HEMCO/CEDS/v2021-06/2019/CH2O-em-anthro_CMIP_CEDS_2019.nc
HEMCO: Opening /shared/ucl/depts/uptrop/uclgcfs/gcgrid/gcdata/ExtData/HEMCO/CEDS/v2021-06/2019/ALD2-em-anthro_CMIP_CEDS_2019.nc
HEMCO: Opening /shared/ucl/depts/uptrop/uclgcfs/gcgrid/gcdata/ExtData/HEMCO/CEDS/v2021-06/2019/MEK-em-anthro_CMIP_CEDS_2019.nc
HEMCO: Opening /shared/ucl/depts/uptrop/uclgcfs/gcgrid/gcdata/ExtData/HEMCO/CEDS/v2021-06/2019/HCOOH-em-anthro_CMIP_CEDS_2019.nc
HEMCO: Opening /shared/ucl/depts/uptrop/uclgcfs/gcgrid/gcdata/ExtData/HEMCO/NH3/v2019-08/NH3_geos.2x25.nc
HEMCO: Opening /shared/ucl/depts/uptrop/uclgcfs/gcgrid/gcdata/ExtData/HEMCO/NH3/v2018-04/NH3_Arctic_seabirds.nc
HEMCO: Opening /shared/ucl/depts/uptrop/uclgcfs/gcgrid/gcdata/ExtData/HEMCO/C2H6_2010/v2019-06/C2H6_global_anth_biof.201001.2x25.nc
HEMCO: Opening /shared/ucl/depts/uptrop/uclgcfs/gcgrid/gcdata/ExtData/HEMCO/IODINE/v2020-02/CH3I_monthly_emissions_Ordonez_2012_COARDS.nc
HEMCO: Opening /shared/ucl/depts/uptrop/uclgcfs/gcgrid/gcdata/ExtData/HEMCO/IODINE/v2020-02/CH2I2_monthly_emissions_Ordonez_2012_COARDS.nc
HEMCO: Opening /shared/ucl/depts/uptrop/uclgcfs/gcgrid/gcdata/ExtData/HEMCO/IODINE/v2020-02/CH2ICl_monthly_emissions_Ordonez_2012_COARDS.nc
HEMCO: Opening /shared/ucl/depts/uptrop/uclgcfs/gcgrid/gcdata/ExtData/HEMCO/IODINE/v2020-02/CH2IBr_monthly_emissions_Ordonez_2012_COARDS.nc
HEMCO: Opening /shared/ucl/depts/uptrop/uclgcfs/gcgrid/gcdata/ExtData/HEMCO/CEDS/v2021-06/2019/CO-em-anthro_CMIP_CEDS_2019.nc
HEMCO: Opening /shared/ucl/depts/uptrop/uclgcfs/gcgrid/gcdata/ExtData/HEMCO/CEDS/v2021-06/2019/SO2-em-anthro_CMIP_CEDS_2019.nc
HEMCO: Opening /shared/ucl/depts/uptrop/uclgcfs/gcgrid/gcdata/ExtData/HEMCO/CEDS/v2021-06/2019/NH3-em-anthro_CMIP_CEDS_2019.nc
HEMCO: Opening /shared/ucl/depts/uptrop/uclgcfs/gcgrid/gcdata/ExtData/HEMCO/CEDS/v2021-06/2019/BC-em-anthro_CMIP_CEDS_2019.nc
HEMCO: Opening /shared/ucl/depts/uptrop/uclgcfs/gcgrid/gcdata/ExtData/HEMCO/CEDS/v2021-06/2019/OC-em-anthro_CMIP_CEDS_2019.nc
HEMCO: Opening /shared/ucl/depts/uptrop/uclgcfs/gcgrid/gcdata/ExtData/HEMCO/CEDS/v2021-06/2019/EOH-em-anthro_CMIP_CEDS_2019.nc
HEMCO: Opening /shared/ucl/depts/uptrop/uclgcfs/gcgrid/gcdata/ExtData/HEMCO/CEDS/v2021-06/2019/C2H6-em-anthro_CMIP_CEDS_2019.nc
HEMCO: Opening /shared/ucl/depts/uptrop/uclgcfs/gcgrid/gcdata/ExtData/HEMCO/CEDS/v2021-06/2019/C3H8-em-anthro_CMIP_CEDS_2019.nc
HEMCO: Opening /shared/ucl/depts/uptrop/uclgcfs/gcgrid/gcdata/ExtData/HEMCO/CEDS/v2021-06/2019/ALK4_butanes-em-anthro_CMIP_CEDS_2019.nc
HEMCO: Opening /shared/ucl/depts/uptrop/uclgcfs/gcgrid/gcdata/ExtData/HEMCO/CEDS/v2021-06/2019/ALK4_pentanes-em-anthro_CMIP_CEDS_2019.nc
HEMCO: Opening /shared/ucl/depts/uptrop/uclgcfs/gcgrid/gcdata/ExtData/HEMCO/CEDS/v2021-06/2019/ALK4_hexanes-em-anthro_CMIP_CEDS_2019.nc
HEMCO: Opening /shared/ucl/depts/uptrop/uclgcfs/gcgrid/gcdata/ExtData/HEMCO/CEDS/v2021-06/2019/C2H4-em-anthro_CMIP_CEDS_2019.nc
HEMCO: Opening /shared/ucl/depts/uptrop/uclgcfs/gcgrid/gcdata/ExtData/HEMCO/CEDS/v2021-06/2019/PRPE-em-anthro_CMIP_CEDS_2019.nc
HEMCO: Opening /shared/ucl/depts/uptrop/uclgcfs/gcgrid/gcdata/ExtData/HEMCO/CEDS/v2021-06/2019/C2H2-em-anthro_CMIP_CEDS_2019.nc
HEMCO: Opening /shared/ucl/depts/uptrop/uclgcfs/gcgrid/gcdata/ExtData/HEMCO/CEDS/v2021-06/2019/BENZ-em-anthro_CMIP_CEDS_2019.nc
HEMCO: Opening /shared/ucl/depts/uptrop/uclgcfs/gcgrid/gcdata/ExtData/HEMCO/CEDS/v2021-06/2019/TOLU-em-anthro_CMIP_CEDS_2019.nc
HEMCO: Opening /shared/ucl/depts/uptrop/uclgcfs/gcgrid/gcdata/ExtData/HEMCO/CEDS/v2021-06/2019/XYLE-em-anthro_CMIP_CEDS_2019.nc
HEMCO: Opening /shared/ucl/depts/uptrop/uclgcfs/gcgrid/gcdata/ExtData/HEMCO/CEDS/v2021-06/2019/CH2O-em-anthro_CMIP_CEDS_2019.nc
HEMCO: Opening /shared/ucl/depts/uptrop/uclgcfs/gcgrid/gcdata/ExtData/HEMCO/CEDS/v2021-06/2019/ALD2-em-anthro_CMIP_CEDS_2019.nc
HEMCO: Opening /shared/ucl/depts/uptrop/uclgcfs/gcgrid/gcdata/ExtData/HEMCO/CEDS/v2021-06/2019/MEK-em-anthro_CMIP_CEDS_2019.nc
HEMCO: Opening /shared/ucl/depts/uptrop/uclgcfs/gcgrid/gcdata/ExtData/HEMCO/CEDS/v2021-06/2019/HCOOH-em-anthro_CMIP_CEDS_2019.nc
HEMCO: Opening /shared/ucl/depts/uptrop/uclgcfs/gcgrid/gcdata/ExtData/HEMCO/CEDS/v2021-06/2019/NO-em-anthro_CMIP_CEDS_2019.nc
HEMCO: Opening /shared/ucl/depts/uptrop/uclgcfs/gcgrid/gcdata/ExtData/HEMCO/AEIC2019/v2022-03/2019_monmean/AEIC_monmean_201901.0.5x0.625.36L.nc
HEMCO: Opening /shared/ucl/depts/uptrop/uclgcfs/gcgrid/gcdata/ExtData/HEMCO/ALD2/v2017-03/resp.geos.2x25.nc
HEMCO: Opening /shared/ucl/depts/uptrop/uclgcfs/gcgrid/gcdata/ExtData/HEMCO/AFCID/v2018-04/PM25FINE_ECLIPSE_2015.geos.2x25.nc
HEMCO: Opening /shared/ucl/depts/uptrop/uclgcfs/gcgrid/gcdata/ExtData/HEMCO/AFCID/v2018-04/PM25FINE_MEIC_2012.generic.025x025.nc
HEMCO: Opening /shared/ucl/depts/uptrop/uclgcfs/gcgrid/gcdata/ExtData/HEMCO/AFCID/v2018-04/PM25FINE_IITB_2013.generic.025x025.nc
HEMCO: Opening /shared/ucl/depts/uptrop/uclgcfs/gcgrid/gcdata/ExtData/HEMCO/DMS/v2015-07/DMS_lana.geos.1x1.nc
HEMCO: Opening /shared/ucl/depts/uptrop/uclgcfs/gcgrid/gcdata/ExtData/HEMCO/ALD2/v2017-03/ALD2_seawater.geos.2x25.nc
HEMCO: Opening /shared/ucl/depts/uptrop/uclgcfs/gcgrid/gcdata/ExtData/HEMCO/RONO2/v2019-05/RONO2_seawater.geos.2x25.nc
HEMCO: Opening /shared/ucl/depts/uptrop/uclgcfs/gcgrid/gcdata/ExtData/HEMCO/GFED4/v2023-03/2020/GFED4_gen.025x025.202001.nc
HEMCO: Opening /shared/ucl/depts/uptrop/uclgcfs/gcgrid/gcdata/ExtData/HEMCO/UVALBEDO/v2019-06/uvalbedo.geos.2x25.nc
HEMCO: Opening /shared/ucl/depts/uptrop/uclgcfs/gcgrid/gcdata/ExtData/HEMCO/STRAT/v2015-01/Bry/GEOSCCM_Bry.200701.day.nc
HEMCO: Opening /shared/ucl/depts/uptrop/uclgcfs/gcgrid/gcdata/ExtData/HEMCO/STRAT/v2015-01/Bry/GEOSCCM_Bry.200701.night.nc
HEMCO: Opening /shared/ucl/depts/uptrop/uclgcfs/gcgrid/gcdata/ExtData/HEMCO/GMI/v2015-02/gmi.clim.OH.geos5.2x25.nc
HEMCO: Opening /shared/ucl/depts/uptrop/uclgcfs/gcgrid/gcdata/ExtData/HEMCO/GMI/v2015-02/gmi.clim.ACET.geos5.2x25.nc
HEMCO: Opening /shared/ucl/depts/uptrop/uclgcfs/gcgrid/gcdata/ExtData/HEMCO/GMI/v2015-02/gmi.clim.ACTA.geos5.2x25.nc
HEMCO: Opening /shared/ucl/depts/uptrop/uclgcfs/gcgrid/gcdata/ExtData/HEMCO/GMI/v2015-02/gmi.clim.ALD2.geos5.2x25.nc
HEMCO: Opening /shared/ucl/depts/uptrop/uclgcfs/gcgrid/gcdata/ExtData/HEMCO/GMI/v2015-02/gmi.clim.ALK4.geos5.2x25.nc
HEMCO: Opening /shared/ucl/depts/uptrop/uclgcfs/gcgrid/gcdata/ExtData/HEMCO/GMI/v2015-02/gmi.clim.C2H6.geos5.2x25.nc
HEMCO: Opening /shared/ucl/depts/uptrop/uclgcfs/gcgrid/gcdata/ExtData/HEMCO/GMI/v2015-02/gmi.clim.C3H8.geos5.2x25.nc
HEMCO: Opening /shared/ucl/depts/uptrop/uclgcfs/gcgrid/gcdata/ExtData/HEMCO/GMI/v2015-02/gmi.clim.CCl4.geos5.2x25.nc
HEMCO: Opening /shared/ucl/depts/uptrop/uclgcfs/gcgrid/gcdata/ExtData/HEMCO/GMI/v2015-02/gmi.clim.CF2Cl2.geos5.2x25.nc
HEMCO: Opening /shared/ucl/depts/uptrop/uclgcfs/gcgrid/gcdata/ExtData/HEMCO/GMI/v2015-02/gmi.clim.CF2ClBr.geos5.2x25.nc
HEMCO: Opening /shared/ucl/depts/uptrop/uclgcfs/gcgrid/gcdata/ExtData/HEMCO/GMI/v2015-02/gmi.clim.CFC113.geos5.2x25.nc
HEMCO: Opening /shared/ucl/depts/uptrop/uclgcfs/gcgrid/gcdata/ExtData/HEMCO/GMI/v2015-02/gmi.clim.CFC114.geos5.2x25.nc
HEMCO: Opening /shared/ucl/depts/uptrop/uclgcfs/gcgrid/gcdata/ExtData/HEMCO/GMI/v2015-02/gmi.clim.CFC115.geos5.2x25.nc
HEMCO: Opening /shared/ucl/depts/uptrop/uclgcfs/gcgrid/gcdata/ExtData/HEMCO/GMI/v2015-02/gmi.clim.CFCl3.geos5.2x25.nc
HEMCO: Opening /shared/ucl/depts/uptrop/uclgcfs/gcgrid/gcdata/ExtData/HEMCO/GMI/v2015-02/gmi.clim.CH2O.geos5.2x25.nc
HEMCO: Opening /shared/ucl/depts/uptrop/uclgcfs/gcgrid/gcdata/ExtData/HEMCO/GMI/v2015-02/gmi.clim.CH3CCl3.geos5.2x25.nc
HEMCO: Opening /shared/ucl/depts/uptrop/uclgcfs/gcgrid/gcdata/ExtData/HEMCO/GMI/v2015-02/gmi.clim.CH3Cl.geos5.2x25.nc
HEMCO: Opening /shared/ucl/depts/uptrop/uclgcfs/gcgrid/gcdata/ExtData/HEMCO/GMI/v2015-02/gmi.clim.CH4.geos5.2x25.nc
HEMCO: Opening /shared/ucl/depts/uptrop/uclgcfs/gcgrid/gcdata/ExtData/HEMCO/GMI/v2015-02/gmi.clim.CO.geos5.2x25.nc
HEMCO: Opening /shared/ucl/depts/uptrop/uclgcfs/gcgrid/gcdata/ExtData/HEMCO/GMI/v2015-02/gmi.clim.Cl.geos5.2x25.nc
HEMCO: Opening /shared/ucl/depts/uptrop/uclgcfs/gcgrid/gcdata/ExtData/HEMCO/GMI/v2015-02/gmi.clim.Cl2.geos5.2x25.nc
HEMCO: Opening /shared/ucl/depts/uptrop/uclgcfs/gcgrid/gcdata/ExtData/HEMCO/GMI/v2015-02/gmi.clim.Cl2O2.geos5.2x25.nc
HEMCO: Opening /shared/ucl/depts/uptrop/uclgcfs/gcgrid/gcdata/ExtData/HEMCO/GMI/v2015-02/gmi.clim.ClO.geos5.2x25.nc
HEMCO: Opening /shared/ucl/depts/uptrop/uclgcfs/gcgrid/gcdata/ExtData/HEMCO/GMI/v2015-02/gmi.clim.EOH.geos5.2x25.nc
HEMCO: Opening /shared/ucl/depts/uptrop/uclgcfs/gcgrid/gcdata/ExtData/HEMCO/GMI/v2015-02/gmi.clim.ETP.geos5.2x25.nc
HEMCO: Opening /shared/ucl/depts/uptrop/uclgcfs/gcgrid/gcdata/ExtData/HEMCO/GMI/v2015-02/gmi.clim.GLYC.geos5.2x25.nc
HEMCO: Opening /shared/ucl/depts/uptrop/uclgcfs/gcgrid/gcdata/ExtData/HEMCO/GMI/v2015-02/gmi.clim.GLYX.geos5.2x25.nc
HEMCO: Opening /shared/ucl/depts/uptrop/uclgcfs/gcgrid/gcdata/ExtData/HEMCO/GMI/v2015-02/gmi.clim.H2402.geos5.2x25.nc
HEMCO: Opening /shared/ucl/depts/uptrop/uclgcfs/gcgrid/gcdata/ExtData/HEMCO/GMI/v2015-02/gmi.clim.H2O.geos5.2x25.nc
HEMCO: Opening /shared/ucl/depts/uptrop/uclgcfs/gcgrid/gcdata/ExtData/HEMCO/GMI/v2015-02/gmi.clim.H2O2.geos5.2x25.nc
HEMCO: Opening /shared/ucl/depts/uptrop/uclgcfs/gcgrid/gcdata/ExtData/HEMCO/GMI/v2015-02/gmi.clim.HAC.geos5.2x25.nc
HEMCO: Opening /shared/ucl/depts/uptrop/uclgcfs/gcgrid/gcdata/ExtData/HEMCO/GMI/v2015-02/gmi.clim.HCFC141b.geos5.2x25.nc
HEMCO: Opening /shared/ucl/depts/uptrop/uclgcfs/gcgrid/gcdata/ExtData/HEMCO/GMI/v2015-02/gmi.clim.HCFC142b.geos5.2x25.nc
HEMCO: Opening /shared/ucl/depts/uptrop/uclgcfs/gcgrid/gcdata/ExtData/HEMCO/GMI/v2015-02/gmi.clim.HCFC22.geos5.2x25.nc
HEMCO: Opening /shared/ucl/depts/uptrop/uclgcfs/gcgrid/gcdata/ExtData/HEMCO/GMI/v2015-02/gmi.clim.HCOOH.geos5.2x25.20170108.nc
HEMCO: Opening /shared/ucl/depts/uptrop/uclgcfs/gcgrid/gcdata/ExtData/HEMCO/GMI/v2015-02/gmi.clim.HCl.geos5.2x25.nc
HEMCO: Opening /shared/ucl/depts/uptrop/uclgcfs/gcgrid/gcdata/ExtData/HEMCO/GMI/v2015-02/gmi.clim.HNO2.geos5.2x25.nc
HEMCO: Opening /shared/ucl/depts/uptrop/uclgcfs/gcgrid/gcdata/ExtData/HEMCO/GMI/v2015-02/gmi.clim.HNO3.geos5.2x25.nc
HEMCO: Opening /shared/ucl/depts/uptrop/uclgcfs/gcgrid/gcdata/ExtData/HEMCO/GMI/v2015-02/gmi.clim.HNO4.geos5.2x25.nc
HEMCO: Opening /shared/ucl/depts/uptrop/uclgcfs/gcgrid/gcdata/ExtData/HEMCO/GMI/v2015-02/gmi.clim.HOCl.geos5.2x25.nc
HEMCO: Opening /shared/ucl/depts/uptrop/uclgcfs/gcgrid/gcdata/ExtData/HEMCO/GMI/v2015-02/gmi.clim.ISOP.geos5.2x25.nc
HEMCO: Opening /shared/ucl/depts/uptrop/uclgcfs/gcgrid/gcdata/ExtData/HEMCO/GMI/v2015-02/gmi.clim.MACR.geos5.2x25.nc
HEMCO: Opening /shared/ucl/depts/uptrop/uclgcfs/gcgrid/gcdata/ExtData/HEMCO/GMI/v2015-02/gmi.clim.MAP.geos5.2x25.nc
HEMCO: Opening /shared/ucl/depts/uptrop/uclgcfs/gcgrid/gcdata/ExtData/HEMCO/GMI/v2015-02/gmi.clim.MEK.geos5.2x25.nc
HEMCO: Opening /shared/ucl/depts/uptrop/uclgcfs/gcgrid/gcdata/ExtData/HEMCO/GMI/v2015-02/gmi.clim.MGLY.geos5.2x25.nc
HEMCO: Opening /shared/ucl/depts/uptrop/uclgcfs/gcgrid/gcdata/ExtData/HEMCO/GMI/v2015-02/gmi.clim.MOH.geos5.2x25.nc
HEMCO: Opening /shared/ucl/depts/uptrop/uclgcfs/gcgrid/gcdata/ExtData/HEMCO/GMI/v2015-02/gmi.clim.MP.geos5.2x25.nc
HEMCO: Opening /shared/ucl/depts/uptrop/uclgcfs/gcgrid/gcdata/ExtData/HEMCO/GMI/v2015-02/gmi.clim.MVK.geos5.2x25.nc
HEMCO: Opening /shared/ucl/depts/uptrop/uclgcfs/gcgrid/gcdata/ExtData/HEMCO/GMI/v2015-02/gmi.clim.N2O.geos5.2x25.nc
HEMCO: Opening /shared/ucl/depts/uptrop/uclgcfs/gcgrid/gcdata/ExtData/HEMCO/GMI/v2015-02/gmi.clim.N2O5.geos5.2x25.nc
HEMCO: Opening /shared/ucl/depts/uptrop/uclgcfs/gcgrid/gcdata/ExtData/HEMCO/GMI/v2015-02/gmi.clim.NO.geos5.2x25.nc
HEMCO: Opening /shared/ucl/depts/uptrop/uclgcfs/gcgrid/gcdata/ExtData/HEMCO/GMI/v2015-02/gmi.clim.NO2.geos5.2x25.nc
HEMCO: Opening /shared/ucl/depts/uptrop/uclgcfs/gcgrid/gcdata/ExtData/HEMCO/GMI/v2015-02/gmi.clim.NO3.geos5.2x25.nc
HEMCO: Opening /shared/ucl/depts/uptrop/uclgcfs/gcgrid/gcdata/ExtData/HEMCO/GMI/v2015-02/gmi.clim.O3.geos5.2x25.nc
HEMCO: Opening /shared/ucl/depts/uptrop/uclgcfs/gcgrid/gcdata/ExtData/HEMCO/GMI/v2015-02/gmi.clim.OClO.geos5.2x25.nc
HEMCO: Opening /shared/ucl/depts/uptrop/uclgcfs/gcgrid/gcdata/ExtData/HEMCO/GMI/v2015-02/gmi.clim.PAN.geos5.2x25.nc
HEMCO: Opening /shared/ucl/depts/uptrop/uclgcfs/gcgrid/gcdata/ExtData/HEMCO/GMI/v2015-02/gmi.clim.PP.geos5.2x25.nc
HEMCO: Opening /shared/ucl/depts/uptrop/uclgcfs/gcgrid/gcdata/ExtData/HEMCO/GMI/v2015-02/gmi.clim.PPN.geos5.2x25.nc
HEMCO: Opening /shared/ucl/depts/uptrop/uclgcfs/gcgrid/gcdata/ExtData/HEMCO/GMI/v2015-02/gmi.clim.PRPE.geos5.2x25.nc
HEMCO: Opening /shared/ucl/depts/uptrop/uclgcfs/gcgrid/gcdata/ExtData/HEMCO/GMI/v2015-02/gmi.clim.PRPN.geos5.2x25.nc
HEMCO: Opening /shared/ucl/depts/uptrop/uclgcfs/gcgrid/gcdata/ExtData/HEMCO/GMI/v2015-02/gmi.clim.R4N2.geos5.2x25.nc
HEMCO: Opening /shared/ucl/depts/uptrop/uclgcfs/gcgrid/gcdata/ExtData/HEMCO/GMI/v2015-02/gmi.clim.R4P.geos5.2x25.nc
HEMCO: Opening /shared/ucl/depts/uptrop/uclgcfs/gcgrid/gcdata/ExtData/HEMCO/GMI/v2015-02/gmi.clim.RA3P.geos5.2x25.nc
HEMCO: Opening /shared/ucl/depts/uptrop/uclgcfs/gcgrid/gcdata/ExtData/HEMCO/GMI/v2015-02/gmi.clim.RB3P.geos5.2x25.nc
HEMCO: Opening /shared/ucl/depts/uptrop/uclgcfs/gcgrid/gcdata/ExtData/HEMCO/GMI/v2015-02/gmi.clim.RCHO.geos5.2x25.nc
HEMCO: Opening /shared/ucl/depts/uptrop/uclgcfs/gcgrid/gcdata/ExtData/HEMCO/GMI/v2015-02/gmi.clim.RIPA.geos5.2x25.nc
HEMCO: Opening /shared/ucl/depts/uptrop/uclgcfs/gcgrid/gcdata/ExtData/HEMCO/GMI/v2015-02/gmi.clim.RIPB.geos5.2x25.nc
HEMCO: Opening /shared/ucl/depts/uptrop/uclgcfs/gcgrid/gcdata/ExtData/HEMCO/GMI/v2015-02/gmi.clim.RIPD.geos5.2x25.nc
HEMCO: Opening /shared/ucl/depts/uptrop/uclgcfs/gcgrid/gcdata/ExtData/HEMCO/GMI/v2015-02/gmi.clim.RP.geos5.2x25.nc
[...]
k has increased from   0.000E+00 to    0.183E-32
k has increased from   0.000E+00 to    0.183E-32
k has increased from   0.000E+00 to    0.183E-32
k has increased from   0.000E+00 to    0.183E-32
k has increased from   0.000E+00 to    0.183E-32
k has increased from   0.000E+00 to    0.183E-32
k has increased from   0.000E+00 to    0.183E-32
k has increased from   0.000E+00 to    0.183E-32
k has increased from   0.000E+00 to    0.183E-32
k has increased from   0.000E+00 to    0.183E-32
k has increased from   0.000E+00 to    0.431E-43
k has increased from   0.000E+00 to    0.311E-41
k has increased from   0.000E+00 to    0.609E-40
k has increased from   0.000E+00 to    0.108E-39
k has increased from   0.000E+00 to    0.483E-66
k has increased from   0.000E+00 to    0.502E-48
k has increased from   0.000E+00 to    0.152E-68
k has increased from   0.000E+00 to    0.219E-65
k has increased from   0.000E+00 to    0.197E-63
k has increased from   0.000E+00 to    0.321E-53
k has increased from   0.000E+00 to    0.411E-50
k has increased from   0.000E+00 to    0.938E-53
k has increased from   0.000E+00 to    0.512E-40
k has increased from   0.000E+00 to    0.208E-52
k has increased from   0.000E+00 to    0.695E-38
k has increased from   0.000E+00 to    0.759E-58
k has increased from   0.174E-21 to    0.174E-21
k has increased from   0.000E+00 to    0.774E-60
k has increased from   0.381E-21 to    0.381E-21
k has increased from   0.000E+00 to    0.548E-62
k has increased from   0.000E+00 to    0.136E-66
k has increased from   0.000E+00 to    0.566E-54
k has increased from   0.000E+00 to    0.285E-55
k has increased from   0.000E+00 to    0.342E-54
k has increased from   0.000E+00 to    0.649E-54
k has increased from   0.000E+00 to    0.214E-43
k has increased from   0.000E+00 to    0.826E-45
k has increased from   0.000E+00 to    0.933E-50
k has increased from   0.000E+00 to    0.441E-37
k has increased from   0.000E+00 to    0.376E-54
k has increased from   0.153E-21 to    0.153E-21
k has increased from   0.000E+00 to    0.611E-57
k has increased from   0.944E-21 to    0.944E-21
k has increased from   0.000E+00 to    0.140E-59
k has increased from   0.230E-20 to    0.230E-20
k has increased from   0.000E+00 to    0.935E-64
k has increased from   0.730E-20 to    0.730E-20
k has increased from   0.000E+00 to    0.115E-44
k has increased from   0.000E+00 to    0.235E-42
k has increased from   0.000E+00 to    0.273E-42
k has increased from   0.000E+00 to    0.296E-42
k has increased from   0.000E+00 to    0.526E-35
k has increased from   0.000E+00 to    0.752E-48
k has increased from   0.125E-21 to    0.125E-21
k has increased from   0.000E+00 to    0.180E-50
k has increased from   0.121E-20 to    0.121E-20
k has increased from   0.000E+00 to    0.160E-54
k has increased from   0.438E-20 to    0.438E-20
k has increased from   0.000E+00 to    0.186E-57
k has increased from   0.105E-19 to    0.105E-19
k has increased from   0.000E+00 to    0.111E-60
k has increased from   0.154E-19 to    0.154E-19
k has increased from   0.630E-20 to    0.630E-20
k has increased from   0.171E-20 to    0.171E-20
k has increased from   0.248E-22 to    0.248E-22
k has increased from   0.000E+00 to    0.260E-35
k has increased from   0.000E+00 to    0.803E-40
k has increased from   0.000E+00 to    0.135E-33
k has increased from   0.000E+00 to    0.134E-31
k has increased from   0.473E-21 to    0.473E-21
k has increased from   0.261E-20 to    0.261E-20
k has increased from   0.641E-20 to    0.641E-20
k has increased from   0.903E-20 to    0.903E-20
k has increased from   0.661E-20 to    0.661E-20
k has increased from   0.333E-20 to    0.333E-20
k has increased from   0.142E-20 to    0.142E-20
k has increased from   0.549E-21 to    0.549E-21
k has increased from   0.297E-21 to    0.297E-21
k has increased from   0.000E+00 to    0.741E-33
k has increased from   0.503E-21 to    0.503E-21
k has increased from   0.000E+00 to    0.302E-30
k has increased from   0.715E-21 to    0.715E-21
k has increased from   0.000E+00 to    0.345E-28
k has increased from   0.625E-21 to    0.625E-21
k has increased from   0.211E-20 to    0.211E-20
k has increased from   0.291E-20 to    0.292E-20
k has increased from   0.294E-20 to    0.309E-20
k has increased from   0.260E-20 to    0.401E-20
k has increased from   0.197E-20 to    0.197E-20
k has increased from   0.141E-20 to    0.141E-20
k has increased from   0.137E-20 to    0.137E-20
k has increased from   0.205E-20 to    0.205E-20
k has increased from   0.000E+00 to    0.258E-34
k has increased from   0.184E-20 to    0.184E-20
k has increased from   0.000E+00 to    0.170E-30
k has increased from   0.105E-20 to    0.105E-20
k has increased from   0.000E+00 to    0.972E-28
k has increased from   0.658E-21 to    0.658E-21
k has increased from   0.000E+00 to    0.148E-25
k has increased from   0.371E-21 to    0.372E-21
k has increased from   0.939E-21 to    0.102E-20
k has increased from   0.121E-20 to    0.556E-20
k has increased from   0.139E-20 to    0.748E-18
k has increased from   0.143E-20 to    0.364E-16
k has increased from   0.151E-20 to    0.159E-20
k has increased from   0.174E-20 to    0.174E-20
k has increased from   0.213E-20 to    0.213E-20
k has increased from   0.000E+00 to    0.210E-40
k has increased from   0.256E-20 to    0.256E-20
k has increased from   0.000E+00 to    0.642E-36
k has increased from   0.236E-20 to    0.236E-20
k has increased from   0.000E+00 to    0.176E-34
k has increased from   0.183E-20 to    0.183E-20
k has increased from   0.000E+00 to    0.297E-32
k has increased from   0.116E-20 to    0.116E-20
k has increased from   0.000E+00 to    0.430E-30
k has increased from   0.693E-22 to    0.728E-22
k has increased from   0.335E-21 to    0.296E-19
k has increased from   0.713E-21 to    0.207E-16
k has increased from   0.123E-20 to    0.126E-14
k has increased from   0.142E-20 to    0.163E-15
k has increased from   0.137E-20 to    0.285E-17
k has increased from   0.147E-20 to    0.520E-19
k has increased from   0.187E-20 to    0.257E-20
k has increased from   0.000E+00 to    0.176E-42
k has increased from   0.288E-20 to    0.288E-20
k has increased from   0.000E+00 to    0.888E-40
k has increased from   0.398E-20 to    0.398E-20
k has increased from   0.000E+00 to    0.202E-36
k has increased from   0.459E-20 to    0.459E-20
k has increased from   0.000E+00 to    0.358E-33
k has increased from   0.434E-20 to    0.434E-20
k has increased from   0.000E+00 to    0.218E-30
k has increased from   0.000E+00 to    0.427E-28
k has increased from   0.106E-22 to    0.106E-22
k has increased from   0.987E-22 to    0.101E-21
k has increased from   0.419E-21 to    0.205E-19
k has increased from   0.112E-20 to    0.169E-18
k has increased from   0.217E-20 to    0.142E-16
k has increased from   0.000E+00 to    0.181E-67
k has increased from   0.233E-20 to    0.108E-17
k has increased from   0.000E+00 to    0.573E-43
k has increased from   0.207E-20 to    0.185E-19
k has increased from   0.000E+00 to    0.156E-39
k has increased from   0.219E-20 to    0.280E-20
k has increased from   0.000E+00 to    0.209E-36
k has increased from   0.305E-20 to    0.307E-20
k has increased from   0.000E+00 to    0.391E-40
k has increased from   0.517E-20 to    0.517E-20
k has increased from   0.000E+00 to    0.204E-36
k has increased from   0.861E-20 to    0.861E-20
k has increased from   0.524E-22 to    0.524E-22
k has increased from   0.117E-20 to    0.119E-20
k has increased from   0.212E-20 to    0.705E-20
k has increased from   0.273E-20 to    0.287E-20
k has increased from   0.343E-20 to    0.343E-20
k has increased from   0.000E+00 to    0.375E-71
k has increased from   0.395E-20 to    0.395E-20
k has increased from   0.000E+00 to    0.174E-49
k has increased from   0.443E-20 to    0.443E-20
k has increased from   0.000E+00 to    0.848E-46
k has increased from   0.537E-20 to    0.537E-20
k has increased from   0.000E+00 to    0.199E-42
k has increased from   0.000E+00 to    0.359E-46
k has increased from   0.000E+00 to    0.712E-38
k has increased from   0.000E+00 to    0.367E-28
k has increased from   0.185E-22 to    0.185E-22
k has increased from   0.130E-21 to    0.130E-21
k has increased from   0.000E+00 to    0.439E-97
k has increased from   0.648E-21 to    0.125E-20
k has increased from   0.000E+00 to    0.432E-75
k has increased from   0.115E-20 to    0.125E-20
k has increased from   0.000E+00 to    0.199E-71
k has increased from   0.176E-20 to    0.176E-20
k has increased from   0.255E-20 to    0.255E-20
k has increased from   0.000E+00 to    0.143E-40
k has increased from   0.311E-20 to    0.311E-20
k has increased from   0.000E+00 to    0.269E-52
k has increased from   0.343E-20 to    0.343E-20
k has increased from   0.000E+00 to    0.327E-47
k has increased from   0.000E+00 to    0.107E-29
k has increased from   0.000E+00 to    0.118E-29
k has increased from   0.000E+00 to    0.135E-29
k has increased from   0.000E+00 to    0.624E-37
k has increased from   0.000E+00 to    0.858E-23
k has increased from   0.000E+00 to    0.534E-56
k has increased from   0.358E-22 to    0.444E-22
k has increased from   0.000E+00 to    0.344E-99
k has increased from   0.000E+00 to    0.611E-56
k has increased from   0.269E-21 to    0.270E-21
k has increased from   0.000E+00 to    0.174E-83
k has increased from   0.000E+00 to    0.676E-56
k has increased from   0.846E-21 to    0.846E-21
k has increased from   0.000E+00 to    0.493E-32
k has increased from   0.000E+00 to    0.891E-70
k has increased from   0.000E+00 to    0.728E-56
k has increased from   0.154E-20 to    0.154E-20
k has increased from   0.000E+00 to    0.444E-32
k has increased from   0.000E+00 to    0.120E-62
k has increased from   0.000E+00 to    0.758E-56
k has increased from   0.193E-20 to    0.193E-20
k has increased from   0.000E+00 to    0.405E-32
k has increased from   0.000E+00 to    0.119E-61
k has increased from   0.000E+00 to    0.355E-41
k has increased from   0.000E+00 to    0.369E-32
k has increased from   0.000E+00 to    0.209E-58
k has increased from   0.000E+00 to    0.345E-33
k has increased from   0.000E+00 to    0.334E-32
k has increased from   0.000E+00 to    0.744E-50
k has increased from   0.000E+00 to    0.848E-33
k has increased from   0.000E+00 to    0.298E-32
k has increased from   0.000E+00 to    0.630E-33
k has increased from   0.000E+00 to    0.136E-32
k has increased from   0.000E+00 to    0.260E-32
k has increased from   0.000E+00 to    0.184E-32
k has increased from   0.000E+00 to    0.190E-32
k has increased from   0.000E+00 to    0.222E-32
k has increased from   0.000E+00 to    0.177E-32
k has increased from   0.000E+00 to    0.248E-32
k has increased from   0.000E+00 to    0.185E-32
k has increased from   0.000E+00 to    0.451E-38
k has increased from   0.000E+00 to    0.200E-61
k has increased from   0.000E+00 to    0.108E-29
k has increased from   0.000E+00 to    0.311E-32
k has increased from   0.000E+00 to    0.149E-32
k has increased from   0.000E+00 to    0.150E-24
k has increased from   0.000E+00 to    0.161E-35
k has increased from   0.000E+00 to    0.108E-29
k has increased from   0.000E+00 to    0.378E-32
k has increased from   0.000E+00 to    0.113E-32
k has increased from   0.000E+00 to    0.706E-25
k has increased from   0.000E+00 to    0.114E-35
k has increased from   0.000E+00 to    0.108E-29
k has increased from   0.000E+00 to    0.448E-32
k has increased from   0.000E+00 to    0.801E-33
k has increased from   0.000E+00 to    0.767E-25
k has increased from   0.000E+00 to    0.950E-36
k has increased from   0.000E+00 to    0.108E-29
k has increased from   0.000E+00 to    0.518E-32
k has increased from   0.000E+00 to    0.496E-33
k has increased from   0.000E+00 to    0.754E-26
k has increased from   0.000E+00 to    0.111E-35
k has increased from   0.000E+00 to    0.108E-29
k has increased from   0.000E+00 to    0.582E-32
k has increased from   0.000E+00 to    0.227E-33
k has increased from   0.000E+00 to    0.140E-35
k has increased from   0.000E+00 to    0.261E-27
k has increased from   0.000E+00 to    0.108E-29
k has increased from   0.000E+00 to    0.639E-32
k has increased from   0.000E+00 to    0.420E-57
k has increased from   0.000E+00 to    0.868E-36
k has increased from   0.151E-21 to    0.151E-21
k has increased from   0.000E+00 to    0.106E-29
k has increased from   0.000E+00 to    0.108E-29
k has increased from   0.000E+00 to    0.694E-32
k has increased from   0.000E+00 to    0.830E-36
k has increased from   0.000E+00 to    0.106E-29
k has increased from   0.000E+00 to    0.108E-29
k has increased from   0.000E+00 to    0.603E-60
k has increased from   0.000E+00 to    0.134E-35
k has increased from   0.000E+00 to    0.106E-29
k has increased from   0.000E+00 to    0.108E-29
k has increased from   0.000E+00 to    0.749E-32
k has increased from   0.000E+00 to    0.890E-36
k has increased from   0.000E+00 to    0.106E-29
k has increased from   0.000E+00 to    0.108E-29
k has increased from   0.000E+00 to    0.736E-32
k has increased from   0.000E+00 to    0.812E-36
k has increased from   0.000E+00 to    0.106E-29
k has increased from   0.000E+00 to    0.108E-29
k has increased from   0.000E+00 to    0.693E-32
k has increased from   0.000E+00 to    0.168E-59
k has increased from   0.000E+00 to    0.226E-30
k has increased from   0.000E+00 to    0.106E-29
k has increased from   0.000E+00 to    0.108E-29
k has increased from   0.000E+00 to    0.629E-32
k has increased from   0.000E+00 to    0.767E-60
k has increased from   0.000E+00 to    0.220E-26
k has increased from   0.000E+00 to    0.106E-29
k has increased from   0.000E+00 to    0.107E-29
k has increased from   0.000E+00 to    0.556E-32
k has increased from   0.000E+00 to    0.105E-29
k has increased from   0.000E+00 to    0.437E-60
k has increased from   0.000E+00 to    0.253E-26
k has increased from   0.000E+00 to    0.106E-29
k has increased from   0.000E+00 to    0.107E-29
k has increased from   0.000E+00 to    0.106E-29
k has increased from   0.000E+00 to    0.105E-29
k has increased from   0.000E+00 to    0.473E-27
k has increased from   0.000E+00 to    0.106E-29
k has increased from   0.000E+00 to    0.107E-29
k has increased from   0.000E+00 to    0.106E-29
k has increased from   0.000E+00 to    0.105E-29
k has increased from   0.000E+00 to    0.402E-27
k has increased from   0.000E+00 to    0.106E-29
k has increased from   0.000E+00 to    0.107E-29
k has increased from   0.000E+00 to    0.106E-29
k has increased from   0.000E+00 to    0.105E-29
k has increased from   0.000E+00 to    0.106E-29
k has increased from   0.000E+00 to    0.535E-28
k has increased from   0.000E+00 to    0.105E-29
k has increased from   0.000E+00 to    0.107E-29
k has increased from   0.000E+00 to    0.106E-29
k has increased from   0.000E+00 to    0.105E-29
k has increased from   0.000E+00 to    0.106E-29
k has increased from   0.000E+00 to    0.296E-29
k has increased from   0.000E+00 to    0.105E-29
k has increased from   0.000E+00 to    0.107E-29
k has increased from   0.000E+00 to    0.106E-29
k has increased from   0.000E+00 to    0.105E-29
k has increased from   0.000E+00 to    0.106E-29
k has increased from   0.000E+00 to    0.616E-44
k has increased from   0.000E+00 to    0.105E-29
k has increased from   0.000E+00 to    0.107E-29
k has increased from   0.000E+00 to    0.106E-29
k has increased from   0.000E+00 to    0.105E-29
k has increased from   0.000E+00 to    0.106E-29
k has increased from   0.000E+00 to    0.401E-44
k has increased from   0.000E+00 to    0.105E-29
k has increased from   0.000E+00 to    0.106E-29
k has increased from   0.000E+00 to    0.106E-29
k has increased from   0.000E+00 to    0.105E-29
k has increased from   0.000E+00 to    0.106E-29
k has increased from   0.000E+00 to    0.861E-45
k has increased from   0.000E+00 to    0.106E-29
k has increased from   0.000E+00 to    0.105E-29
k has increased from   0.000E+00 to    0.106E-29
k has increased from   0.000E+00 to    0.105E-29
k has increased from   0.000E+00 to    0.106E-29
k has increased from   0.000E+00 to    0.106E-29
k has increased from   0.000E+00 to    0.248E-56
k has increased from   0.000E+00 to    0.106E-29
k has increased from   0.000E+00 to    0.105E-29
k has increased from   0.000E+00 to    0.105E-29
k has increased from   0.000E+00 to    0.106E-29
k has increased from   0.000E+00 to    0.106E-29
k has increased from   0.000E+00 to    0.343E-56
k has increased from   0.000E+00 to    0.106E-29
k has increased from   0.000E+00 to    0.105E-29
k has increased from   0.000E+00 to    0.106E-29
k has increased from   0.000E+00 to    0.106E-29
k has increased from   0.000E+00 to    0.106E-29
k has increased from   0.000E+00 to    0.442E-56
k has increased from   0.000E+00 to    0.106E-29
k has increased from   0.000E+00 to    0.105E-29
k has increased from   0.000E+00 to    0.106E-29
k has increased from   0.000E+00 to    0.106E-29
k has increased from   0.000E+00 to    0.106E-29
k has increased from   0.000E+00 to    0.106E-29
k has increased from   0.000E+00 to    0.105E-29
k has increased from   0.000E+00 to    0.106E-29
k has increased from   0.000E+00 to    0.106E-29
k has increased from   0.000E+00 to    0.106E-29
k has increased from   0.000E+00 to    0.106E-29
k has increased from   0.000E+00 to    0.105E-29
k has increased from   0.000E+00 to    0.106E-29
k has increased from   0.000E+00 to    0.106E-29
k has increased from   0.000E+00 to    0.106E-29
k has increased from   0.000E+00 to    0.106E-29
k has increased from   0.000E+00 to    0.105E-29
k has increased from   0.000E+00 to    0.106E-29
k has increased from   0.000E+00 to    0.106E-29
k has increased from   0.000E+00 to    0.106E-29
k has increased from   0.000E+00 to    0.106E-29
k has increased from   0.000E+00 to    0.105E-29
k has increased from   0.000E+00 to    0.106E-29
k has increased from   0.000E+00 to    0.106E-29
k has increased from   0.000E+00 to    0.106E-29
k has increased from   0.000E+00 to    0.106E-29
k has increased from   0.000E+00 to    0.105E-29
k has increased from   0.000E+00 to    0.106E-29
k has increased from   0.000E+00 to    0.106E-29
k has increased from   0.000E+00 to    0.106E-29
k has increased from   0.000E+00 to    0.106E-29
k has increased from   0.000E+00 to    0.105E-29
k has increased from   0.000E+00 to    0.107E-29
k has increased from   0.000E+00 to    0.106E-29
k has increased from   0.000E+00 to    0.106E-29
k has increased from   0.000E+00 to    0.106E-29
k has increased from   0.000E+00 to    0.107E-29
k has increased from   0.000E+00 to    0.106E-29
k has increased from   0.000E+00 to    0.106E-29
k has increased from   0.000E+00 to    0.106E-29
k has increased from   0.000E+00 to    0.107E-29
k has increased from   0.000E+00 to    0.106E-29
k has increased from   0.000E+00 to    0.106E-29
k has increased from   0.000E+00 to    0.106E-29
k has increased from   0.000E+00 to    0.107E-29
k has increased from   0.000E+00 to    0.106E-29
k has increased from   0.000E+00 to    0.106E-29
k has increased from   0.000E+00 to    0.106E-29
k has increased from   0.000E+00 to    0.107E-29
k has increased from   0.000E+00 to    0.106E-29
k has increased from   0.000E+00 to    0.106E-29
k has increased from   0.000E+00 to    0.106E-29
k has increased from   0.000E+00 to    0.108E-29
k has increased from   0.000E+00 to    0.106E-29
k has increased from   0.000E+00 to    0.106E-29
k has increased from   0.000E+00 to    0.106E-29
k has increased from   0.000E+00 to    0.108E-29
k has increased from   0.000E+00 to    0.106E-29
k has increased from   0.000E+00 to    0.106E-29
k has increased from   0.000E+00 to    0.106E-29
k has increased from   0.000E+00 to    0.106E-29
k has increased from   0.000E+00 to    0.106E-29
k has increased from   0.000E+00 to    0.106E-29
k has increased from   0.000E+00 to    0.106E-29
k has increased from   0.000E+00 to    0.106E-29
